SandboxData_C2S7_20210305/C2S7N00793/scenario_001/case.raw
0,100.0,33,0,0,50.0
GRID OPTIMIZATION COMPETITION CHALLENGE 2
INPUT DATA FILES ARE RAW JSON CON
1,'            ',115.0,1,1,1,1,1.42719216,-2.28834178,2.12,0.465,2.12,0.465
2,'            ',115.0,1,1,1,1,1.56392715,-4.89125007,2.12,0.465,2.12,0.465
3,'            ',35.0,1,1,1,1,1.40648554,-3.3874068,2.12,0.465,2.12,0.465
4,'            ',115.0,1,1,1,1,1.45182403,-0.52492511,2.12,0.465,2.12,0.465
5,'            ',13.0,1,1,1,1,1.56340881,-5.14634256,2.12,0.465,2.12,0.465
6,'            ',14.0,1,1,1,1,1.40270277,-4.10416971,2.12,0.465,2.12,0.465
7,'            ',115.0,1,1,1,1,1.41024712,-3.16671757,2.12,0.465,2.12,0.465
8,'            ',13.0,1,1,1,1,1.56354685,-4.84056557,2.12,0.465,2.12,0.465
9,'            ',35.0,1,1,1,1,1.41505926,-2.97447862,2.12,0.465,2.12,0.465
10,'            ',115.0,1,1,1,1,1.56285287,-5.11772657,2.12,0.465,2.12,0.465
11,'            ',115.0,1,1,1,1,1.53037605,-6.08995051,2.12,0.465,2.12,0.465
12,'            ',35.0,1,1,1,1,1.78441963,-2.15821333,2.12,0.465,2.12,0.465
13,'            ',13.0,1,1,1,1,1.48256848,-4.432002,2.12,0.465,2.12,0.465
15,'            ',35.0,1,1,1,1,1.28973252,-3.48276367,2.12,0.465,2.12,0.465
16,'            ',115.0,1,1,1,1,1.45875335,-0.60479709,2.12,0.465,2.12,0.465
17,'            ',115.0,1,1,1,1,1.45134122,-1.14738818,2.12,0.465,2.12,0.465
18,'            ',230.0,1,1,1,1,1.49885687,-2.59520692,2.12,0.465,2.12,0.465
19,'            ',230.0,1,1,1,1,1.49771,-2.58256069,2.12,0.465,2.12,0.465
20,'            ',13.0,1,1,1,1,1.4518383,-0.56628782,2.12,0.465,2.12,0.465
21,'            ',115.0,1,1,1,1,1.5351906,-7.54943989,2.12,0.465,2.12,0.465
22,'            ',115.0,1,1,1,1,1.41642878,-2.06660428,2.12,0.465,2.12,0.465
23,'            ',115.0,2,1,1,1,1.44140458,2.63446775,2.12,0.465,2.12,0.465
24,'            ',115.0,1,1,1,1,1.3997887,-3.77767198,2.12,0.465,2.12,0.465
25,'            ',14.0,1,1,1,1,1.54297305,-4.10416971,2.12,0.465,2.12,0.465
27,'            ',115.0,1,1,1,1,1.56263883,-5.10976674,2.12,0.465,2.12,0.465
28,'            ',35.0,1,1,1,1,1.50301598,-5.03244268,2.12,0.465,2.12,0.465
30,'            ',115.0,1,1,1,1,1.40300608,-3.64509147,2.12,0.465,2.12,0.465
31,'            ',230.0,2,1,1,1,1.49861359,-2.59407379,2.12,0.465,2.12,0.465
32,'            ',115.0,1,1,1,1,1.56300966,-4.95542879,2.12,0.465,2.12,0.465
33,'            ',230.0,1,1,1,1,1.49039518,-2.90825356,2.12,0.465,2.12,0.465
34,'            ',35.0,1,1,1,1,1.42670335,-0.64006754,2.12,0.465,2.12,0.465
35,'            ',230.0,1,1,1,1,1.49771128,-2.58256412,2.12,0.465,2.12,0.465
36,'            ',230.0,1,1,1,1,1.49039518,-2.90825356,2.12,0.465,2.12,0.465
37,'            ',230.0,1,1,1,1,1.5521486,-4.44874389,2.12,0.465,2.12,0.465
38,'            ',230.0,1,1,1,1,1.49908909,-2.64104902,2.12,0.465,2.12,0.465
39,'            ',35.0,1,1,1,1,1.62703629,-2.37065711,2.12,0.465,2.12,0.465
40,'            ',115.0,1,1,1,1,1.45913781,-0.87168795,2.12,0.465,2.12,0.465
41,'            ',230.0,1,1,1,1,1.51209575,-4.84373112,2.12,0.465,2.12,0.465
43,'            ',115.0,2,1,1,1,1.45621603,0.13923549,2.12,0.465,2.12,0.465
44,'            ',115.0,1,1,1,1,1.43935871,2.1732843,2.12,0.465,2.12,0.465
45,'            ',230.0,1,1,1,1,1.49039518,-2.90825356,2.12,0.465,2.12,0.465
46,'            ',230.0,2,1,1,1,1.5500135,-4.17243734,2.12,0.465,2.12,0.465
47,'            ',115.0,2,1,1,1,1.46382947,-0.68039945,2.12,0.465,2.12,0.465
49,'            ',35.0,1,1,1,1,1.42670335,-0.64006754,2.12,0.465,2.12,0.465
50,'            ',115.0,1,1,1,1,1.56363034,-4.85143926,2.12,0.465,2.12,0.465
51,'            ',13.0,1,1,1,1,1.39912495,-3.80483109,2.12,0.465,2.12,0.465
52,'            ',230.0,2,1,1,1,1.5112593,-4.84995582,2.12,0.465,2.12,0.465
53,'            ',115.0,1,1,1,1,1.5421767,-6.19870832,2.12,0.465,2.12,0.465
54,'            ',35.0,1,1,1,1,1.51848949,-6.06796839,2.12,0.465,2.12,0.465
55,'            ',230.0,2,1,1,1,1.55932856,-4.10416971,2.12,0.465,2.12,0.465
56,'            ',35.0,1,1,1,1,1.42669559,-2.14588817,2.12,0.465,2.12,0.465
57,'            ',115.0,1,1,1,1,1.52663955,-8.02713769,2.12,0.465,2.12,0.465
58,'            ',115.0,1,1,1,1,1.54823177,-5.77496873,2.12,0.465,2.12,0.465
59,'            ',35.0,2,1,1,1,1.44791224,3.03924191,2.12,0.465,2.12,0.465
60,'            ',115.0,1,1,1,1,1.41569741,-2.9279079,2.12,0.465,2.12,0.465
61,'            ',13.0,1,1,1,1,1.56258115,-5.11978147,2.12,0.465,2.12,0.465
62,'            ',115.0,1,1,1,1,1.54294281,-6.1529883,2.12,0.465,2.12,0.465
63,'            ',230.0,1,1,1,1,1.55711383,-4.25055986,2.12,0.465,2.12,0.465
64,'            ',35.0,1,1,1,1,1.44059995,2.61723171,2.12,0.465,2.12,0.465
65,'            ',14.0,2,1,1,1,1.4716072,-0.06164916,2.12,0.465,2.12,0.465
66,'            ',230.0,1,1,1,1,1.49885687,-2.59520692,2.12,0.465,2.12,0.465
67,'            ',115.0,1,1,1,1,1.43011006,-0.59298772,2.12,0.465,2.12,0.465
68,'            ',115.0,1,1,1,1,1.53927172,-6.91291151,2.12,0.465,2.12,0.465
69,'            ',230.0,1,1,1,1,1.49754233,-2.58067025,2.12,0.465,2.12,0.465
70,'            ',35.0,1,1,1,1,1.59874942,-0.9735684,2.12,0.465,2.12,0.465
71,'            ',115.0,2,1,1,1,1.46801587,-0.48337703,2.12,0.465,2.12,0.465
72,'            ',115.0,1,1,1,1,1.56258917,-5.0786052,2.12,0.465,2.12,0.465
73,'            ',115.0,1,1,1,1,1.40949472,-3.20116073,2.12,0.465,2.12,0.465
74,'            ',115.0,1,1,1,1,1.56365908,-4.83079247,2.12,0.465,2.12,0.465
75,'            ',13.0,1,1,1,1,1.45235976,-0.61061563,2.12,0.465,2.12,0.465
76,'            ',115.0,1,1,1,1,1.54377607,-6.09745653,2.12,0.465,2.12,0.465
77,'            ',35.0,1,1,1,1,1.48776241,-5.07425567,2.12,0.465,2.12,0.465
78,'            ',35.0,1,1,1,1,1.40248525,-3.68691251,2.12,0.465,2.12,0.465
79,'            ',230.0,1,1,1,1,1.55089158,-4.50503081,2.12,0.465,2.12,0.465
80,'            ',14.0,1,1,1,1,1.45862516,-0.60814083,2.12,0.465,2.12,0.465
81,'            ',115.0,1,1,1,1,1.4828512,-4.41026616,2.12,0.465,2.12,0.465
82,'            ',115.0,1,1,1,1,1.54215458,-6.20049221,2.12,0.465,2.12,0.465
83,'            ',115.0,1,1,1,1,1.54042019,-6.82152859,2.12,0.465,2.12,0.465
84,'            ',115.0,1,1,1,1,1.53887258,-6.94021429,2.12,0.465,2.12,0.465
85,'            ',115.0,1,1,1,1,1.52659259,-8.0306025,2.12,0.465,2.12,0.465
86,'            ',230.0,2,1,1,1,1.48862331,-2.25603549,2.12,0.465,2.12,0.465
87,'            ',230.0,1,1,1,1,1.51117536,-4.85866774,2.12,0.465,2.12,0.465
88,'            ',35.0,1,1,1,1,1.44169395,-0.29815748,2.12,0.465,2.12,0.465
89,'            ',35.0,1,1,1,1,1.64711764,-2.7622038,2.12,0.465,2.12,0.465
90,'            ',230.0,2,1,1,1,1.55717727,-4.20985171,2.12,0.465,2.12,0.465
91,'            ',115.0,1,1,1,1,1.54081129,-6.77516463,2.12,0.465,2.12,0.465
92,'            ',115.0,1,1,1,1,1.53157803,-6.07691189,2.12,0.465,2.12,0.465
93,'            ',115.0,2,1,1,1,1.44991239,-1.08422851,2.12,0.465,2.12,0.465
94,'            ',115.0,1,1,1,1,1.40041649,-3.74973172,2.12,0.465,2.12,0.465
95,'            ',345.0,1,1,1,1,1.50737102,-2.39774852,2.12,0.465,2.12,0.465
96,'            ',345.0,1,1,1,1,1.50720646,-2.39978019,2.12,0.465,2.12,0.465
97,'            ',345.0,1,1,1,1,1.5075014,-2.41059874,2.12,0.465,2.12,0.465
98,'            ',345.0,1,1,1,1,1.50730169,-2.41111749,2.12,0.465,2.12,0.465
99,'            ',345.0,1,1,1,1,1.51643861,-2.26727392,2.12,0.465,2.12,0.465
100,'            ',345.0,1,1,1,1,1.516549,-2.27429617,2.12,0.465,2.12,0.465
101,'            ',345.0,1,1,1,1,1.51665505,-2.97983745,2.12,0.465,2.12,0.465
102,'            ',345.0,1,1,1,1,1.51692003,-2.8767029,2.12,0.465,2.12,0.465
103,'            ',138.0,1,1,1,1,1.52960501,-1.45985089,2.12,0.465,2.12,0.465
104,'            ',138.0,1,1,1,1,1.66025391,9.00158953,2.12,0.465,2.12,0.465
105,'            ',138.0,2,1,1,1,1.65924038,8.93024108,2.12,0.465,2.12,0.465
106,'            ',138.0,1,1,1,1,1.58148732,1.1944467,2.12,0.465,2.12,0.465
107,'            ',138.0,1,1,1,1,1.58172765,1.19207711,2.12,0.465,2.12,0.465
108,'            ',138.0,1,1,1,1,1.68982986,10.24424813,2.12,0.465,2.12,0.465
109,'            ',138.0,1,1,1,1,1.52203114,-1.96744431,2.12,0.465,2.12,0.465
110,'            ',138.0,1,1,1,1,1.58064677,1.2286264,2.12,0.465,2.12,0.465
111,'            ',138.0,1,1,1,1,1.58079463,1.22668347,2.12,0.465,2.12,0.465
112,'            ',138.0,1,1,1,1,1.56716582,0.49215652,2.12,0.465,2.12,0.465
113,'            ',138.0,1,1,1,1,1.56716582,0.49215652,2.12,0.465,2.12,0.465
114,'            ',138.0,1,1,1,1,1.56725396,0.49678558,2.12,0.465,2.12,0.465
115,'            ',138.0,1,1,1,1,1.52409919,-2.06464869,2.12,0.465,2.12,0.465
116,'            ',138.0,1,1,1,1,1.53489823,-1.25730271,2.12,0.465,2.12,0.465
117,'            ',138.0,1,1,1,1,1.5357743,-1.26381487,2.12,0.465,2.12,0.465
118,'            ',138.0,1,1,1,1,1.52607181,-1.66904594,2.12,0.465,2.12,0.465
119,'            ',138.0,1,1,1,1,1.52618798,-1.6636189,2.12,0.465,2.12,0.465
120,'            ',138.0,1,1,1,1,1.52230984,-2.02054996,2.12,0.465,2.12,0.465
121,'            ',138.0,1,1,1,1,1.52366109,-1.84076455,2.12,0.465,2.12,0.465
122,'            ',138.0,1,1,1,1,1.52368225,-1.8391374,2.12,0.465,2.12,0.465
123,'            ',138.0,1,1,1,1,1.52368261,-1.83914156,2.12,0.465,2.12,0.465
124,'            ',138.0,1,1,1,1,1.52366142,-1.84076852,2.12,0.465,2.12,0.465
125,'            ',138.0,1,1,1,1,1.52207604,-1.96494369,2.12,0.465,2.12,0.465
126,'            ',138.0,1,1,1,1,1.5241088,-2.06475843,2.12,0.465,2.12,0.465
127,'            ',138.0,1,1,1,1,1.57482524,1.55149877,2.12,0.465,2.12,0.465
128,'            ',138.0,1,1,1,1,1.57451576,1.56550175,2.12,0.465,2.12,0.465
129,'            ',138.0,1,1,1,1,1.51910796,3.55712062,2.12,0.465,2.12,0.465
130,'            ',138.0,1,1,1,1,1.51924238,3.55853457,2.12,0.465,2.12,0.465
131,'            ',138.0,1,1,1,1,1.56702995,0.48412684,2.12,0.465,2.12,0.465
132,'            ',138.0,1,1,1,1,1.53477204,-1.26338923,2.12,0.465,2.12,0.465
133,'            ',138.0,1,1,1,1,1.50296571,-1.73885287,2.12,0.465,2.12,0.465
134,'            ',138.0,2,1,1,1,1.49946325,-2.88437658,2.12,0.465,2.12,0.465
135,'            ',138.0,1,1,1,1,1.5217409,-1.98248043,2.12,0.465,2.12,0.465
136,'            ',138.0,1,1,1,1,1.52363302,-1.84240861,2.12,0.465,2.12,0.465
137,'            ',138.0,1,1,1,1,1.45449938,2.95754441,2.12,0.465,2.12,0.465
138,'            ',138.0,1,1,1,1,1.59921927,6.14331497,2.12,0.465,2.12,0.465
139,'            ',138.0,1,1,1,1,1.59922049,6.14335093,2.12,0.465,2.12,0.465
140,'            ',138.0,1,1,1,1,1.57861906,1.28612886,2.12,0.465,2.12,0.465
141,'            ',138.0,1,1,1,1,1.5761083,1.41834365,2.12,0.465,2.12,0.465
142,'            ',138.0,1,1,1,1,1.49247884,-0.80167442,2.12,0.465,2.12,0.465
143,'            ',138.0,1,1,1,1,1.4914143,-0.79601868,2.12,0.465,2.12,0.465
144,'            ',138.0,1,1,1,1,1.52207445,-1.96492524,2.12,0.465,2.12,0.465
145,'            ',138.0,1,1,1,1,1.56556237,-1.270476,2.12,0.465,2.12,0.465
146,'            ',138.0,1,1,1,1,1.58314196,0.85280901,2.12,0.465,2.12,0.465
147,'            ',138.0,1,1,1,1,1.58313715,0.84539284,2.12,0.465,2.12,0.465
148,'            ',138.0,1,1,1,1,1.53229233,-2.12512287,2.12,0.465,2.12,0.465
149,'            ',138.0,1,1,1,1,1.53266158,-2.11330707,2.12,0.465,2.12,0.465
150,'            ',138.0,1,1,1,1,1.5240291,-2.06711366,2.12,0.465,2.12,0.465
151,'            ',138.0,2,1,1,1,1.55279326,3.86659653,2.12,0.465,2.12,0.465
152,'            ',138.0,2,1,1,1,1.52942087,-1.45797723,2.12,0.465,2.12,0.465
153,'            ',138.0,1,1,1,1,1.51586126,-1.0746196,2.12,0.465,2.12,0.465
154,'            ',138.0,1,1,1,1,1.51477508,-1.07117378,2.12,0.465,2.12,0.465
155,'            ',138.0,1,1,1,1,1.58495388,1.15021878,2.12,0.465,2.12,0.465
156,'            ',138.0,1,1,1,1,1.58521618,1.15903401,2.12,0.465,2.12,0.465
157,'            ',138.0,1,1,1,1,1.57430836,1.18780634,2.12,0.465,2.12,0.465
158,'            ',138.0,1,1,1,1,1.57439992,1.19131254,2.12,0.465,2.12,0.465
159,'            ',138.0,2,1,1,1,1.56333666,1.8206619,2.12,0.465,2.12,0.465
160,'            ',138.0,1,1,1,1,1.56361854,1.81347423,2.12,0.465,2.12,0.465
161,'            ',138.0,1,1,1,1,1.52457939,-1.76651638,2.12,0.465,2.12,0.465
162,'            ',138.0,1,1,1,1,1.52450094,-1.77511497,2.12,0.465,2.12,0.465
163,'            ',138.0,1,1,1,1,1.57236731,1.48417913,2.12,0.465,2.12,0.465
164,'            ',138.0,1,1,1,1,1.5724454,1.48423667,2.12,0.465,2.12,0.465
165,'            ',138.0,1,1,1,1,1.58490634,1.14721699,2.12,0.465,2.12,0.465
166,'            ',138.0,1,1,1,1,1.58518509,1.15656758,2.12,0.465,2.12,0.465
167,'            ',138.0,1,1,1,1,1.52550392,-1.43120204,2.12,0.465,2.12,0.465
168,'            ',138.0,1,1,1,1,1.52593621,-1.42094461,2.12,0.465,2.12,0.465
169,'            ',138.0,1,1,1,1,1.68095978,9.88908077,2.12,0.465,2.12,0.465
170,'            ',138.0,1,1,1,1,1.6810361,9.89260247,2.12,0.465,2.12,0.465
171,'            ',138.0,1,1,1,1,1.57179597,1.49037421,2.12,0.465,2.12,0.465
172,'            ',138.0,1,1,1,1,1.57202574,1.48685259,2.12,0.465,2.12,0.465
173,'            ',138.0,1,1,1,1,1.49377717,3.29509626,2.12,0.465,2.12,0.465
174,'            ',138.0,1,1,1,1,1.49441309,3.3264043,2.12,0.465,2.12,0.465
175,'            ',138.0,1,1,1,1,1.52792252,-2.11206944,2.12,0.465,2.12,0.465
176,'            ',138.0,1,1,1,1,1.52808505,-2.11209039,2.12,0.465,2.12,0.465
177,'            ',138.0,1,1,1,1,1.52353224,-2.05270353,2.12,0.465,2.12,0.465
178,'            ',138.0,1,1,1,1,1.52353093,-2.05268683,2.12,0.465,2.12,0.465
179,'            ',138.0,2,1,1,1,1.61681147,6.96132771,2.12,0.465,2.12,0.465
180,'            ',138.0,1,1,1,1,1.6178969,7.04593407,2.12,0.465,2.12,0.465
181,'            ',138.0,1,1,1,1,1.56661068,2.19690889,2.12,0.465,2.12,0.465
182,'            ',138.0,1,1,1,1,1.56690543,2.18162177,2.12,0.465,2.12,0.465
183,'            ',138.0,1,1,1,1,1.55913214,3.02320334,2.12,0.465,2.12,0.465
184,'            ',138.0,1,1,1,1,1.53276617,-1.33968189,2.12,0.465,2.12,0.465
185,'            ',138.0,1,1,1,1,1.5332723,-1.34652006,2.12,0.465,2.12,0.465
186,'            ',138.0,1,1,1,1,1.53297275,-1.33268466,2.12,0.465,2.12,0.465
187,'            ',138.0,1,1,1,1,1.53352237,-1.33848989,2.12,0.465,2.12,0.465
188,'            ',138.0,1,1,1,1,1.55553248,3.49114879,2.12,0.465,2.12,0.465
189,'            ',138.0,1,1,1,1,1.55525511,3.50789809,2.12,0.465,2.12,0.465
190,'            ',138.0,2,1,1,1,1.57273256,0.81036859,2.12,0.465,2.12,0.465
191,'            ',138.0,1,1,1,1,1.52231998,-1.98705169,2.12,0.465,2.12,0.465
192,'            ',138.0,1,1,1,1,1.52235367,-1.98554385,2.12,0.465,2.12,0.465
193,'            ',138.0,1,1,1,1,1.52184938,-1.97681932,2.12,0.465,2.12,0.465
194,'            ',138.0,1,1,1,1,1.55017949,-0.92005985,2.12,0.465,2.12,0.465
195,'            ',138.0,1,1,1,1,1.55030704,-0.91348501,2.12,0.465,2.12,0.465
196,'            ',138.0,1,1,1,1,1.57274457,0.81023644,2.12,0.465,2.12,0.465
197,'            ',138.0,1,1,1,1,1.52368293,-1.839146,2.12,0.465,2.12,0.465
198,'            ',138.0,1,1,1,1,1.52265204,-2.03507881,2.12,0.465,2.12,0.465
199,'            ',138.0,1,1,1,1,1.52265623,-2.03490072,2.12,0.465,2.12,0.465
200,'            ',138.0,1,1,1,1,1.58385984,1.15599975,2.12,0.465,2.12,0.465
201,'            ',138.0,1,1,1,1,1.58411486,1.15514761,2.12,0.465,2.12,0.465
202,'            ',138.0,1,1,1,1,1.58258635,1.17775816,2.12,0.465,2.12,0.465
203,'            ',138.0,1,1,1,1,1.5823464,1.18012291,2.12,0.465,2.12,0.465
204,'            ',138.0,1,1,1,1,1.58323844,1.18904163,2.12,0.465,2.12,0.465
205,'            ',138.0,1,1,1,1,1.58280166,1.19410026,2.12,0.465,2.12,0.465
...
0 / END OF BUS DATA BEGIN LOAD DATA
1,'1',1,1,1,16.787,7.066,0.0,0.0,0.0,0.0,1,1,0
2,'1',1,1,1,9.677,2.152,0.0,0.0,0.0,0.0,1,1,0
2,'2',1,1,1,0.12,0.557,0.0,0.0,0.0,0.0,1,1,0
2,'99',0,1,1,16.545,15.406,0.0,0.0,0.0,0.0,1,1,0
3,'1',1,1,1,9.633,2.73,0.0,0.0,0.0,0.0,1,1,0
5,'1',1,1,1,0.535,-1.387,0.0,0.0,0.0,0.0,1,1,0
7,'1',1,1,1,7.427,4.249,0.0,0.0,0.0,0.0,1,1,0
8,'1',1,1,1,2.315,0.393,0.0,0.0,0.0,0.0,1,1,0
9,'1',1,1,1,14.308,2.807,0.0,0.0,0.0,0.0,1,1,0
12,'1',1,1,1,10.638,6.99,0.0,0.0,0.0,0.0,1,1,0
13,'1',1,1,1,8.825,2.425,0.0,0.0,0.0,0.0,1,1,0
15,'1',1,1,1,14.188,3.659,0.0,0.0,0.0,0.0,1,1,0
20,'1',1,1,1,13.882,-4.412,0.0,0.0,0.0,0.0,1,1,0
21,'1',1,1,1,8.617,-1.158,0.0,0.0,0.0,0.0,1,1,0
28,'1',1,1,1,26.442,3.146,0.0,0.0,0.0,0.0,1,1,0
32,'1',1,1,1,7.613,1.278,0.0,0.0,0.0,0.0,1,1,0
34,'1',1,1,1,10.66,8.759,0.0,0.0,0.0,0.0,1,1,0
36,'99',0,1,1,108.412,-4.52,0.0,0.0,0.0,0.0,1,1,0
37,'1',0,1,1,1.0,1.0,0.0,0.0,0.0,0.0,1,1,0
39,'1',1,1,1,18.939,7.623,0.0,0.0,0.0,0.0,1,1,0
43,'1',1,1,1,2.184,0.491,0.0,0.0,0.0,0.0,1,1,0
44,'1',1,1,1,9.633,2.447,0.0,0.0,0.0,0.0,1,1,0
47,'1',1,1,1,11.479,-1.627,0.0,0.0,0.0,0.0,1,1,0
49,'1',1,1,1,10.66,8.759,0.0,0.0,0.0,0.0,1,1,0
51,'1',1,1,1,5.461,3.277,0.0,0.0,0.0,0.0,1,1,0
53,'1',1,1,1,7.623,0.59,0.0,0.0,0.0,0.0,1,1,0
54,'1',1,1,1,15.586,-1.18,0.0,0.0,0.0,0.0,1,1,0
56,'1',1,1,1,6.837,6.324,0.0,0.0,0.0,0.0,1,1,0
57,'1',1,1,1,7.831,-0.295,0.0,0.0,0.0,0.0,1,1,0
58,'99',0,1,1,10.106,10.951,0.0,0.0,0.0,0.0,1,1,0
59,'1',1,1,1,9.731,5.745,0.0,0.0,0.0,0.0,1,1,0
61,'1',1,1,1,4.096,-0.502,0.0,0.0,0.0,0.0,1,1,0
62,'1',1,1,1,8.508,-0.295,0.0,0.0,0.0,0.0,1,1,0
63,'1',1,1,1,32.241,0.098,0.0,0.0,0.0,0.0,1,1,0
64,'1',1,1,1,9.251,8.202,0.0,0.0,0.0,0.0,1,1,0
65,'1',1,1,1,0.994,0.644,0.0,0.0,0.0,0.0,1,1,0
68,'1',1,1,1,7.678,-0.284,0.0,0.0,0.0,0.0,1,1,0
70,'1',1,1,1,6.051,-3.79,0.0,0.0,0.0,0.0,1,1,0
71,'1',1,1,1,6.138,-1.911,0.0,0.0,0.0,0.0,1,1,0
71,'2',1,1,1,6.138,-1.911,0.0,0.0,0.0,0.0,1,1,0
72,'1',1,1,1,5.843,0.382,0.0,0.0,0.0,0.0,1,1,0
74,'1',0,1,1,1.0,1.0,0.0,0.0,0.0,0.0,1,1,0
74,'2',1,1,1,7.613,4.817,0.0,0.0,0.0,0.0,1,1,0
75,'1',1,1,1,3.255,-2.643,0.0,0.0,0.0,0.0,1,1,0
76,'1',1,1,1,5.832,-0.295,0.0,0.0,0.0,0.0,1,1,0
77,'1',1,1,1,25.59,0.459,0.0,0.0,0.0,0.0,1,1,0
78,'1',1,1,1,15.236,3.757,0.0,0.0,0.0,0.0,1,1,0
80,'1',1,1,1,0.983,0.59,0.0,0.0,0.0,0.0,1,1,0
81,'99',0,1,1,30.844,22.078,0.0,0.0,0.0,0.0,1,1,0
82,'1',1,1,1,7.623,0.59,0.0,0.0,0.0,0.0,1,1,0
84,'1',1,1,1,9.458,0.601,0.0,0.0,0.0,0.0,1,1,0
85,'1',1,1,1,14.93,4.183,0.0,0.0,0.0,0.0,1,1,0
88,'1',0,1,1,1.0,1.0,0.0,0.0,0.0,0.0,1,1,0
89,'1',1,1,1,21.352,0.022,0.0,0.0,0.0,0.0,1,1,0
92,'1',1,1,1,4.948,-0.295,0.0,0.0,0.0,0.0,1,1,0
94,'1',1,1,1,2.37,2.741,0.0,0.0,0.0,0.0,1,1,0
96,'99',1,1,1,24.202,42.983,0.0,0.0,0.0,0.0,1,1,0
97,'99',1,1,1,20.567,27.639,0.0,0.0,0.0,0.0,1,1,0
99,'1',1,1,1,7.645,19.659,0.0,0.0,0.0,0.0,1,1,0
100,'1',1,1,1,8.738,22.936,0.0,0.0,0.0,0.0,1,1,0
101,'99',1,1,1,112.237,21.393,0.0,0.0,0.0,0.0,1,1,0
102,'99',0,1,1,1.156,-45.892,0.0,0.0,0.0,0.0,1,1,0
105,'1',1,1,1,4.675,1.726,0.0,0.0,0.0,0.0,1,1,0
106,'1',1,1,1,5.985,2.512,0.0,0.0,0.0,0.0,1,1,0
108,'1',1,1,1,8.41,2.796,0.0,0.0,0.0,0.0,1,1,0
108,'99',1,1,1,2.254,-17.639,0.0,0.0,0.0,0.0,1,1,0
109,'1',1,1,1,8.989,2.359,0.0,0.0,0.0,0.0,1,1,0
110,'1',1,1,1,2.042,0.874,0.0,0.0,0.0,0.0,1,1,0
111,'1',1,1,1,3.648,1.551,0.0,0.0,0.0,0.0,1,1,0
112,'1',1,1,1,14.766,5.494,0.0,0.0,0.0,0.0,1,1,0
115,'1',1,1,1,5.253,1.889,0.0,0.0,0.0,0.0,1,1,0
116,'1',1,1,1,25.787,23.045,0.0,0.0,0.0,0.0,1,1,0
118,'1',1,1,1,5.963,2.523,0.0,0.0,0.0,0.0,1,1,0
120,'1',1,1,1,10.507,3.429,0.0,0.0,0.0,0.0,1,1,0
128,'1',1,1,1,1.092,0.415,0.0,0.0,0.0,0.0,1,1,0
129,'1',1,1,1,4.904,3.397,0.0,0.0,0.0,0.0,1,1,0
131,'1',1,1,1,87.375,42.595,0.0,0.0,0.0,0.0,1,1,0
132,'1',1,1,1,5.712,1.977,0.0,0.0,0.0,0.0,1,1,0
133,'1',1,1,1,2.097,0.655,0.0,0.0,0.0,0.0,1,1,0
134,'1',1,1,1,57.886,27.327,0.0,0.0,0.0,0.0,1,1,0
135,'1',1,1,1,6.553,2.326,0.0,0.0,0.0,0.0,1,1,0
136,'1',1,1,1,3.036,0.983,0.0,0.0,0.0,0.0,1,1,0
137,'1',1,1,1,11.544,3.834,0.0,0.0,0.0,0.0,1,1,0
137,'99',0,1,1,28.183,-12.764,0.0,0.0,0.0,0.0,1,1,0
138,'1',1,1,1,0.47,0.109,0.0,0.0,0.0,0.0,1,1,0
140,'1',1,1,1,3.036,1.813,0.0,0.0,0.0,0.0,1,1,0
141,'1',1,1,1,6.367,0.732,0.0,0.0,0.0,0.0,1,1,0
142,'1',1,1,1,8.869,3.014,0.0,0.0,0.0,0.0,1,1,0
143,'99',0,1,1,0.426,1.249,0.0,0.0,0.0,0.0,1,1,0
145,'99',0,1,1,53.244,16.969,0.0,0.0,0.0,0.0,1,1,0
146,'1',1,1,1,1.748,0.437,0.0,0.0,0.0,0.0,1,1,0
147,'1',1,1,1,1.169,0.535,0.0,0.0,0.0,0.0,1,1,0
148,'1',1,1,1,7.132,3.047,0.0,0.0,0.0,0.0,1,1,0
149,'99',0,1,1,9.227,-8.412,0.0,0.0,0.0,0.0,1,1,0
150,'1',1,1,1,5.253,1.649,0.0,0.0,0.0,0.0,1,1,0
151,'1',1,1,1,20.653,32.995,0.0,0.0,0.0,0.0,1,1,0
152,'1',1,1,1,7.645,15.291,0.0,0.0,0.0,0.0,1,1,0
153,'1',1,1,1,9.928,3.342,0.0,0.0,0.0,0.0,1,1,0
157,'1',1,1,1,3.211,1.365,0.0,0.0,0.0,0.0,1,1,0
159,'1',1,1,1,15.891,0.601,0.0,0.0,0.0,0.0,1,1,0
160,'1',1,1,1,12.265,2.905,0.0,0.0,0.0,0.0,1,1,0
161,'1',1,1,1,6.968,3.025,0.0,0.0,0.0,0.0,1,1,0
162,'1',1,1,1,9.076,4.019,0.0,0.0,0.0,0.0,1,1,0
163,'1',1,1,1,0.928,0.087,0.0,0.0,0.0,0.0,1,1,0
165,'1',1,1,1,0.721,0.426,0.0,0.0,0.0,0.0,1,1,0
166,'1',1,1,1,0.579,0.339,0.0,0.0,0.0,0.0,1,1,0
168,'1',1,1,1,11.326,3.779,0.0,0.0,0.0,0.0,1,1,0
169,'1',1,1,1,2.807,1.016,0.0,0.0,0.0,0.0,1,1,0
171,'1',1,1,1,5.843,0.83,0.0,0.0,0.0,0.0,1,1,0
173,'1',1,1,1,7.929,2.96,0.0,0.0,0.0,0.0,1,1,0
175,'1',1,1,1,3.266,1.245,0.0,0.0,0.0,0.0,1,1,0
176,'1',1,1,1,7.012,2.49,0.0,0.0,0.0,0.0,1,1,0
179,'1',1,1,1,6.542,2.25,0.0,0.0,0.0,0.0,1,1,0
181,'1',1,1,1,4.959,2.064,0.0,0.0,0.0,0.0,1,1,0
182,'1',1,1,1,4.675,1.955,0.0,0.0,0.0,0.0,1,1,0
184,'1',1,1,1,3.976,1.343,0.0,0.0,0.0,0.0,1,1,0
185,'1',1,1,1,4.664,1.693,0.0,0.0,0.0,0.0,1,1,0
188,'1',1,1,1,0.819,0.404,0.0,0.0,0.0,0.0,1,1,0
189,'1',1,1,1,1.398,0.633,0.0,0.0,0.0,0.0,1,1,0
191,'1',1,1,1,5.024,1.889,0.0,0.0,0.0,0.0,1,1,0
193,'1',1,1,1,5.024,1.78,0.0,0.0,0.0,0.0,1,1,0
194,'1',1,1,1,13.314,4.325,0.0,0.0,0.0,0.0,1,1,0
195,'99',0,1,1,18.155,5.789,0.0,0.0,0.0,0.0,1,1,0
198,'1',1,1,1,4.205,1.507,0.0,0.0,0.0,0.0,1,1,0
200,'1',1,1,1,5.8,1.616,0.0,0.0,0.0,0.0,1,1,0
201,'1',1,1,1,8.104,2.195,0.0,0.0,0.0,0.0,1,1,0
202,'1',1,1,1,2.348,0.612,0.0,0.0,0.0,0.0,1,1,0
204,'1',1,1,1,12.91,5.09,0.0,0.0,0.0,0.0,1,1,0
205,'1',1,1,1,12.243,5.286,0.0,0.0,0.0,0.0,1,1,0
206,'1',1,1,1,4.511,1.857,0.0,0.0,0.0,0.0,1,1,0
207,'1',1,1,1,2.807,1.136,0.0,0.0,0.0,0.0,1,1,0
208,'99',1,1,1,37.536,-1.844,0.0,0.0,0.0,0.0,1,1,0
209,'1',1,1,1,0.579,0.328,0.0,0.0,0.0,0.0,1,1,0
213,'99',1,1,1,52.168,18.155,0.0,0.0,0.0,0.0,1,1,0
214,'99',1,1,1,298.206,24.209,0.0,0.0,0.0,0.0,1,1,0
216,'99',1,1,1,84.532,49.203,0.0,0.0,0.0,0.0,1,1,0
220,'99',0,1,1,659.876,-1.015,0.0,0.0,0.0,0.0,1,1,0
221,'1',1,1,1,35.125,56.87,0.0,0.0,0.0,0.0,1,1,0
222,'1',1,1,1,50.634,100.558,0.0,0.0,0.0,0.0,1,1,0
223,'1',1,1,1,65.531,131.063,0.0,0.0,0.0,0.0,1,1,0
224,'1',1,1,1,65.531,131.063,0.0,0.0,0.0,0.0,1,1,0
224,'99',1,1,1,1097.192,179.934,0.0,0.0,0.0,0.0,1,1,0
225,'99',1,1,1,408.526,92.384,0.0,0.0,0.0,0.0,1,1,0
226,'99',1,1,1,77.879,64.172,0.0,0.0,0.0,0.0,1,1,0
227,'99',1,1,1,74.337,-59.352,0.0,0.0,0.0,0.0,1,1,0
228,'1',1,1,1,42.377,-2.949,0.0,0.0,0.0,0.0,1,1,0
229,'99',1,1,1,15.34,27.89,0.0,0.0,0.0,0.0,1,1,0
231,'99',1,1,1,163.928,60.729,0.0,0.0,0.0,0.0,1,1,0
234,'99',1,1,1,8.119,41.94,0.0,0.0,0.0,0.0,1,1,0
235,'99',1,1,1,54.092,44.133,0.0,0.0,0.0,0.0,1,1,0
236,'1',1,1,1,8.41,21.844,0.0,0.0,0.0,0.0,1,1,0
236,'99',1,1,1,339.438,-13.972,0.0,0.0,0.0,0.0,1,1,0
237,'1',1,1,1,4.205,1.092,0.0,0.0,0.0,0.0,1,1,0
238,'1',1,1,1,2.479,1.212,0.0,0.0,0.0,0.0,1,1,0
239,'1',1,1,1,1.726,0.437,0.0,0.0,0.0,0.0,1,1,0
240,'1',1,1,1,4.849,1.201,0.0,0.0,0.0,0.0,1,1,0
241,'1',1,1,1,5.068,0.437,0.0,0.0,0.0,0.0,1,1,0
241,'99',1,1,1,3.889,-0.304,0.0,0.0,0.0,0.0,1,1,0
242,'1',1,1,1,15.171,8.475,0.0,0.0,0.0,0.0,1,1,0
243,'1',1,1,1,21.32,12.265,0.0,0.0,0.0,0.0,1,1,0
245,'99',1,1,1,87.346,10.034,0.0,0.0,0.0,0.0,1,1,0
246,'1',1,1,1,21.844,43.688,0.0,0.0,0.0,0.0,1,1,0
247,'1',1,1,1,22.313,22.521,0.0,0.0,0.0,0.0,1,1,0
248,'1',1,1,1,39.865,13.117,0.0,0.0,0.0,0.0,1,1,0
249,'99',1,1,1,90.734,11.832,0.0,0.0,0.0,0.0,1,1,0
250,'1',1,1,1,0.164,0.732,0.0,0.0,0.0,0.0,1,1,0
251,'1',1,1,1,20.227,13.379,0.0,0.0,0.0,0.0,1,1,0
252,'1',1,1,1,15.389,6.695,0.0,0.0,0.0,0.0,1,1,0
253,'1',1,1,1,9.48,1.092,0.0,0.0,0.0,0.0,1,1,0
253,'99',1,1,1,8.639,-5.706,0.0,0.0,0.0,0.0,1,1,0
254,'99',1,1,1,76.755,22.379,0.0,0.0,0.0,0.0,1,1,0
256,'1',1,1,1,6.138,1.311,0.0,0.0,0.0,0.0,1,1,0
257,'1',1,1,1,6.138,1.42,0.0,0.0,0.0,0.0,1,1,0
257,'99',1,1,1,24.369,15.604,0.0,0.0,0.0,0.0,1,1,0
258,'1',1,1,1,3.877,0.328,0.0,0.0,0.0,0.0,1,1,0
259,'1',1,1,1,2.588,0.655,0.0,0.0,0.0,0.0,1,1,0
260,'1',1,1,1,3.877,0.655,0.0,0.0,0.0,0.0,1,1,0
261,'1',1,1,1,2.261,0.437,0.0,0.0,0.0,0.0,1,1,0
262,'99',1,1,1,2.801,-9.268,0.0,0.0,0.0,0.0,1,1,0
263,'1',1,1,1,1.289,0.328,0.0,0.0,0.0,0.0,1,1,0
264,'1',1,1,1,0.437,0.109,0.0,0.0,0.0,0.0,1,1,0
266,'1',1,1,1,3.244,3.604,0.0,0.0,0.0,0.0,1,1,0
267,'1',1,1,1,16.044,7.634,0.0,0.0,0.0,0.0,1,1,0
269,'1',0,1,1,1.0,1.0,0.0,0.0,0.0,0.0,1,1,0
270,'1',1,1,1,6.979,3.298,0.0,0.0,0.0,0.0,1,1,0
272,'1',1,1,1,33.497,6.346,0.0,0.0,0.0,0.0,1,1,0
273,'1',1,1,1,4.107,3.014,0.0,0.0,0.0,0.0,1,1,0
274,'1',1,1,1,16.962,4.554,0.0,0.0,0.0,0.0,1,1,0
277,'99',1,1,1,176.336,86.319,0.0,0.0,0.0,0.0,1,1,0
279,'1',1,1,1,8.071,3.364,0.0,0.0,0.0,0.0,1,1,0
281,'1',1,1,1,2.228,3.298,0.0,0.0,0.0,0.0,1,1,0
284,'1',1,1,1,6.499,2.108,0.0,0.0,0.0,0.0,1,1,0
284,'99',1,1,1,7.251,6.043,0.0,0.0,0.0,0.0,1,1,0
285,'1',1,1,1,2.348,2.173,0.0,0.0,0.0,0.0,1,1,0
286,'1',1,1,1,1.551,3.091,0.0,0.0,0.0,0.0,1,1,0
287,'1',1,1,1,1.485,2.894,0.0,0.0,0.0,0.0,1,1,0
289,'1',1,1,1,6.575,3.539,0.0,0.0,0.0,0.0,1,1,0
289,'99',1,1,1,2.324,-3.048,0.0,0.0,0.0,0.0,1,1,0
290,'1',1,1,1,3.036,3.014,0.0,0.0,0.0,0.0,1,1,0
291,'1',1,1,1,1.376,2.414,0.0,0.0,0.0,0.0,1,1,0
...
0 / END OF LOAD DATA BEGIN FIXED SHUNT DATA
2,'1',1,0.0,15.498
23,'1',1,0.0,-120.31
36,'1',1,0.0,-4.438
58,'1',1,0.0,10.592
81,'1',1,0.0,21.502
98,'1',1,0.0,-24.285
100,'1',1,0.0,4.571
102,'1',1,0.0,-43.607
133,'1',1,0.0,-1.321
137,'1',1,0.0,-13.204
143,'1',1,0.0,1.197
145,'1',1,0.0,16.36
149,'1',1,0.0,-8.091
156,'1',1,0.0,40.892
195,'1',1,0.0,5.562
220,'1',1,0.0,-1.094
304,'1',1,0.0,2.218
348,'1',1,0.0,5.534
357,'1',1,0.0,-30.025
363,'1',1,0.0,24.399
364,'1',1,0.0,-71.188
367,'1',1,0.0,60.608
376,'1',1,0.0,-9.534
380,'1',1,0.0,11.017
386,'1',1,0.0,-5.842
390,'1',1,0.0,12.518
428,'1',1,0.0,-7.317
442,'1',1,0.0,-7.663
443,'1',1,0.0,12.284
444,'1',1,0.0,19.281
460,'1',1,0.0,32.216
525,'1',1,0.0,100.748
576,'1',1,0.0,-63.285
591,'1',1,0.0,22.609
595,'1',1,0.0,6.261
623,'1',1,0.0,-2.498
624,'1',1,0.0,6.887
631,'1',1,0.0,30.406
639,'1',1,0.0,-66.624
640,'1',1,0.0,-75.05
642,'1',1,0.0,88.396
653,'1',1,0.0,26.664
684,'1',1,0.0,0.059
696,'1',1,0.0,-1.903
697,'1',1,0.0,-37.362
743,'1',1,0.0,-1.15
748,'1',1,0.0,-19.101
791,'1',1,0.0,0.336
794,'1',1,0.0,-2.22
0 / END OF FIXED SHUNT DATA BEGIN GENERATOR DATA
6,'1',0.0,0.0,33.333,-33.333,1.40270277,0,100.0,0.0,1.0,0.0,0.0,1.0,0,100.0,63.0,28.5,1,1.0,0,1.0,0,1.0,0,1.0,0,1.0
23,'98',190.19672847,152.30125797,183.0,-183.0,1.44140458,0,100.0,0.0,1.0,0.0,0.0,1.0,1,100.0,526.316,2.0,1,1.0,0,1.0,0,1.0,0,1.0,0,1.0
25,'1',0.0,0.0,22.5,-22.5,1.54297305,0,100.0,0.0,1.0,0.0,0.0,1.0,0,100.0,280.0,2.0,1,1.0,0,1.0,0,1.0,0,1.0,0,1.0
25,'2',0.0,0.0,22.5,-22.5,1.54297305,0,100.0,0.0,1.0,0.0,0.0,1.0,0,100.0,60.43,14.25,1,1.0,0,1.0,0,1.0,0,1.0,0,1.0
31,'99',74.2417978,-39.45806886,160.0,-160.0,1.49861359,0,100.0,0.0,1.0,0.0,0.0,1.0,1,100.0,136.038,34.685,1,1.0,0,1.0,0,1.0,0,1.0,0,1.0
33,'1',0.0,0.0,19.29,-19.29,1.49039518,0,100.0,0.0,1.0,0.0,0.0,1.0,0,100.0,46.2,11.4,1,1.0,0,1.0,0,1.0,0,1.0,0,1.0
35,'1',0.0,0.0,33.127,-33.127,1.49771128,0,100.0,0.0,1.0,0.0,0.0,1.0,0,100.0,288.0,2.0,1,1.0,0,1.0,0,1.0,0,1.0,0,1.0
35,'2',0.0,0.0,23.05,-23.05,1.49771128,0,100.0,0.0,1.0,0.0,0.0,1.0,0,100.0,300.0,2.0,1,1.0,0,1.0,0,1.0,0,1.0,0,1.0
35,'3',0.0,0.0,16.237,-16.237,1.49771128,0,100.0,0.0,1.0,0.0,0.0,1.0,0,100.0,40.14,25.14,1,1.0,0,1.0,0,1.0,0,1.0,0,1.0
37,'L1',8.90094651,3.53901324,3.54,3.538,1.5521486,0,100.0,0.0,1.0,0.0,0.0,1.0,1,100.0,8.902,8.9,1,1.0,0,1.0,0,1.0,0,1.0,0,1.0
43,'99',132.30680964,9.25578337,160.0,-160.0,1.45621603,0,100.0,0.0,1.0,0.0,0.0,1.0,1,100.0,301.053,1.129,1,1.0,0,1.0,0,1.0,0,1.0,0,1.0
45,'1',0.0,0.0,67.75,-67.75,1.49039518,0,100.0,0.0,1.0,0.0,0.0,1.0,0,100.0,173.25,50.54,1,1.0,0,1.0,0,1.0,0,1.0,0,1.0
46,'99',29.68949621,61.99006264,160.0,-160.0,1.5500135,0,100.0,0.0,1.0,0.0,0.0,1.0,1,100.0,55.716,11.516,1,1.0,0,1.0,0,1.0,0,1.0,0,1.0
47,'99',36.33681644,12.08329824,160.0,-160.0,1.46382947,0,100.0,0.0,1.0,0.0,0.0,1.0,1,100.0,68.734,15.271,1,1.0,0,1.0,0,1.0,0,1.0,0,1.0
52,'99',61.2582047,9.68324854,160.0,-160.0,1.5112593,0,100.0,0.0,1.0,0.0,0.0,1.0,1,100.0,111.717,27.67,1,1.0,0,1.0,0,1.0,0,1.0,0,1.0
55,'99',74.94859973,39.59994122,160.0,-160.0,1.55932856,0,100.0,0.0,1.0,0.0,0.0,1.0,1,100.0,136.0,34.674,1,1.0,0,1.0,0,1.0,0,1.0,0,1.0
59,'1',169.86840328,38.59785151,66.11,-103.578,1.44791224,0,100.0,0.0,1.0,0.0,0.0,1.0,1,100.0,297.895,3.833,1,1.0,0,1.0,0,1.0,0,1.0,0,1.0
65,'1',136.467838,44.58240656,92.232,-2.97,1.4716072,0,100.0,0.0,1.0,0.0,0.0,1.0,1,100.0,265.263,7.393,1,1.0,0,1.0,0,1.0,0,1.0,0,1.0
65,'2',0.0,0.0,9.267,-9.267,1.4716072,0,100.0,0.0,1.0,0.0,0.0,1.0,0,100.0,25.2,4.75,1,1.0,0,1.0,0,1.0,0,1.0,0,1.0
71,'99',36.64963889,9.84705324,160.0,-160.0,1.46801587,0,100.0,0.0,1.0,0.0,0.0,1.0,1,100.0,67.904,15.032,1,1.0,0,1.0,0,1.0,0,1.0,0,1.0
74,'L1',0.36002196,-0.38199791,-0.381,-0.383,1.56365908,0,100.0,0.0,1.0,0.0,0.0,1.0,1,100.0,0.361,0.359,1,1.0,0,1.0,0,1.0,0,1.0,0,1.0
80,'1',0.0,0.0,9.267,-9.267,1.45862516,0,100.0,0.0,1.0,0.0,0.0,1.0,0,100.0,26.25,4.75,1,1.0,0,1.0,0,1.0,0,1.0,0,1.0
80,'2',0.0,0.0,9.267,-9.267,1.45862516,0,100.0,0.0,1.0,0.0,0.0,1.0,0,100.0,25.2,2.0,1,1.0,0,1.0,0,1.0,0,1.0,0,1.0
86,'99',45.21837207,-38.1589402,160.0,-160.0,1.48862331,0,100.0,0.0,1.0,0.0,0.0,1.0,1,100.0,83.388,19.498,1,1.0,0,1.0,0,1.0,0,1.0,0,1.0
87,'1',0.0,0.0,95.526,-95.526,1.51117536,0,100.0,0.0,1.0,0.0,0.0,1.0,0,100.0,274.737,2.0,1,1.0,0,1.0,0,1.0,0,1.0,0,1.0
88,'L1',0.2840245,-0.01099921,-0.01,-0.012,1.44169395,0,100.0,0.0,1.0,0.0,0.0,1.0,1,100.0,0.285,0.283,1,1.0,0,1.0,0,1.0,0,1.0,0,1.0
90,'99',33.85799823,62.85580767,160.0,-160.0,1.55717727,0,100.0,0.0,1.0,0.0,0.0,1.0,1,100.0,59.599,12.637,1,1.0,0,1.0,0,1.0,0,1.0,0,1.0
93,'99',118.57381219,5.00407149,160.0,-160.0,1.44991239,0,100.0,0.0,1.0,0.0,0.0,1.0,1,100.0,265.263,2.965,1,1.0,0,1.0,0,1.0,0,1.0,0,1.0
98,'99',0.0,0.0,33.333,-33.333,1.50730169,0,100.0,0.0,1.0,0.0,0.0,1.0,0,100.0,65.268,50.268,1,1.0,0,1.0,0,1.0,0,1.0,0,1.0
99,'1',0.0,0.0,52.613,-1.0,1.51643861,0,100.0,0.0,1.0,0.0,0.0,1.0,0,100.0,151.316,70.0,1,1.0,0,1.0,0,1.0,0,1.0,0,1.0
100,'1',0.0,0.0,52.613,-1.0,1.516549,0,100.0,0.0,1.0,0.0,0.0,1.0,0,100.0,151.316,70.0,1,1.0,0,1.0,0,1.0,0,1.0,0,1.0
100,'99',0.0,0.0,33.333,-33.333,1.516549,0,100.0,0.0,1.0,0.0,0.0,1.0,0,100.0,28.104,13.104,1,1.0,0,1.0,0,1.0,0,1.0,0,1.0
105,'97',63.65324525,25.99861218,43.92,-43.92,1.65924038,0,100.0,0.0,1.0,0.0,0.0,1.0,1,100.0,126.316,5.0,1,1.0,0,1.0,0,1.0,0,1.0,0,1.0
116,'1',0.0,0.0,50.325,-40.0,1.53489823,0,100.0,0.0,1.0,0.0,0.0,1.0,0,100.0,144.737,32.0,1,1.0,0,1.0,0,1.0,0,1.0,0,1.0
117,'1',0.0,0.0,37.667,-37.667,1.5357743,0,100.0,0.0,1.0,0.0,0.0,1.0,0,100.0,113.0,32.0,1,1.0,0,1.0,0,1.0,0,1.0,0,1.0
121,'1',0.0,0.0,45.0,-45.0,1.52366109,0,100.0,0.0,1.0,0.0,0.0,1.0,0,100.0,135.0,35.0,1,1.0,0,1.0,0,1.0,0,1.0,0,1.0
131,'1',0.0,0.0,8.333,-8.333,1.56702995,0,100.0,0.0,1.0,0.0,0.0,1.0,0,100.0,25.0,10.0,1,1.0,0,1.0,0,1.0,0,1.0,0,1.0
131,'2',0.0,0.0,8.333,-8.333,1.56702995,0,100.0,0.0,1.0,0.0,0.0,1.0,0,100.0,25.0,10.0,1,1.0,0,1.0,0,1.0,0,1.0,0,1.0
131,'3',0.0,0.0,11.438,-11.438,1.56702995,0,100.0,0.0,1.0,0.0,0.0,1.0,0,100.0,32.895,10.0,1,1.0,0,1.0,0,1.0,0,1.0,0,1.0
131,'4',0.0,0.0,9.15,-9.15,1.56702995,0,100.0,0.0,1.0,0.0,0.0,1.0,0,100.0,26.316,10.0,1,1.0,0,1.0,0,1.0,0,1.0,0,1.0
133,'99',0.0,0.0,33.333,-33.333,1.50296571,0,100.0,0.0,1.0,0.0,0.0,1.0,0,100.0,295.0,2.396,1,1.0,0,1.0,0,1.0,0,1.0,0,1.0
134,'1',30.03402319,11.52867081,16.667,-16.667,1.49946325,0,100.0,0.0,1.0,0.0,0.0,1.0,1,100.0,52.632,5.0,1,1.0,0,1.0,0,1.0,0,1.0,0,1.0
151,'1',0.0,0.0,43.92,-1.0,1.55279326,0,100.0,0.0,1.0,0.0,0.0,1.0,0,100.0,126.316,70.0,1,1.0,0,1.0,0,1.0,0,1.0,0,1.0
151,'2',81.23009548,31.74203218,43.92,-1.0,1.55279326,0,100.0,0.0,1.0,0.0,0.0,1.0,1,100.0,126.316,58.333,1,1.0,0,1.0,0,1.0,0,1.0,0,1.0
151,'97',67.98071477,28.61989999,43.92,-43.92,1.55279326,0,100.0,0.0,1.0,0.0,0.0,1.0,1,100.0,126.316,5.0,1,1.0,0,1.0,0,1.0,0,1.0,0,1.0
152,'1',108.79758522,42.14054593,54.897,-1.0,1.52942087,0,100.0,0.0,1.0,0.0,0.0,1.0,1,100.0,157.887,79.0,1,1.0,0,1.0,0,1.0,0,1.0,0,1.0
152,'2',0.0,0.0,36.667,-36.667,1.52942087,0,100.0,0.0,1.0,0.0,0.0,1.0,0,100.0,110.0,79.0,1,1.0,0,1.0,0,1.0,0,1.0,0,1.0
156,'99',0.0,0.0,33.333,-33.333,1.58521618,0,100.0,0.0,1.0,0.0,0.0,1.0,0,100.0,62.466,47.466,1,1.0,0,1.0,0,1.0,0,1.0,0,1.0
159,'99',138.97981879,91.95561021,160.0,-160.0,1.56333666,0,100.0,0.0,1.0,0.0,0.0,1.0,1,100.0,308.421,0.037,1,1.0,0,1.0,0,1.0,0,1.0,0,1.0
179,'97',65.70988192,27.08549108,43.92,-43.92,1.61681147,0,100.0,0.0,1.0,0.0,0.0,1.0,1,100.0,126.316,10.0,1,1.0,0,1.0,0,1.0,0,1.0,0,1.0
190,'99',47.445636,13.94206785,160.0,-160.0,1.57273256,0,100.0,0.0,1.0,0.0,0.0,1.0,1,100.0,83.856,18.133,1,1.0,0,1.0,0,1.0,0,1.0,0,1.0
221,'1',0.0,0.0,123.333,-123.333,1.55752169,0,100.0,0.0,1.0,0.0,0.0,1.0,0,100.0,370.0,240.0,1,1.0,0,1.0,0,1.0,0,1.0,0,1.0
221,'2',0.0,0.0,123.333,-123.333,1.55752169,0,100.0,0.0,1.0,0.0,0.0,1.0,0,100.0,370.0,240.0,1,1.0,0,1.0,0,1.0,0,1.0,0,1.0
221,'3',0.0,0.0,157.837,-23.75,1.55752169,0,100.0,0.0,1.0,0.0,0.0,1.0,0,100.0,453.947,240.0,1,1.0,0,1.0,0,1.0,0,1.0,0,1.0
222,'1',335.51082335,97.99329103,169.275,-19.0,1.55940096,0,100.0,0.0,1.0,0.0,0.0,1.0,1,100.0,486.842,240.0,1,1.0,0,1.0,0,1.0,0,1.0,0,1.0
222,'2',0.0,0.0,135.42,-19.0,1.55940096,0,100.0,0.0,1.0,0.0,0.0,1.0,0,100.0,389.474,240.0,1,1.0,0,1.0,0,1.0,0,1.0,0,1.0
223,'1',577.65858982,-1.02657191,190.0,-19.0,1.44348464,0,100.0,0.0,1.0,0.0,0.0,1.0,1,100.0,1148.453,50.876,1,1.0,0,1.0,0,1.0,0,1.0,0,1.0
223,'2',577.10840829,-1.02657191,190.0,-19.0,1.44348464,0,100.0,0.0,1.0,0.0,0.0,1.0,1,100.0,1148.453,50.876,1,1.0,0,1.0,0,1.0,0,1.0,0,1.0
223,'3',577.10840829,-1.02657191,190.0,-19.0,1.44348464,0,100.0,0.0,1.0,0.0,0.0,1.0,1,100.0,1148.453,50.876,1,1.0,0,1.0,0,1.0,0,1.0,0,1.0
224,'1',0.0,0.0,169.275,-19.0,1.44325502,0,100.0,0.0,1.0,0.0,0.0,1.0,0,100.0,486.842,240.0,1,1.0,0,1.0,0,1.0,0,1.0,0,1.0
224,'2',308.68524393,-1.40315618,155.55,-19.0,1.44325502,0,100.0,0.0,1.0,0.0,0.0,1.0,1,100.0,447.368,240.0,1,1.0,0,1.0,0,1.0,0,1.0,0,1.0
224,'3',308.68524393,-1.40315618,155.55,-19.0,1.44325502,0,100.0,0.0,1.0,0.0,0.0,1.0,1,100.0,447.368,240.0,1,1.0,0,1.0,0,1.0,0,1.0,0,1.0
233,'99',97.04901623,-151.97567149,160.0,-160.0,1.45867895,0,100.0,0.0,1.0,0.0,0.0,1.0,1,100.0,186.779,43.1,1,1.0,0,1.0,0,1.0,0,1.0,0,1.0
236,'1',0.0,0.0,50.325,-15.0,1.54692762,0,100.0,0.0,1.0,0.0,0.0,1.0,0,100.0,144.737,91.667,1,1.0,0,1.0,0,1.0,0,1.0,0,1.0
236,'98',176.65776442,58.67687259,183.0,-183.0,1.54692762,0,100.0,0.0,1.0,0.0,0.0,1.0,1,100.0,526.316,2.0,1,1.0,0,1.0,0,1.0,0,1.0,0,1.0
246,'1',317.92197282,2.76667751,160.125,-19.0,1.53664134,0,100.0,0.0,1.0,0.0,0.0,1.0,1,100.0,460.526,240.0,1,1.0,0,1.0,0,1.0,0,1.0,0,1.0
250,'1',0.0,0.0,10.98,-10.98,1.43041155,0,100.0,0.0,1.0,0.0,0.0,1.0,0,100.0,31.579,2.0,1,1.0,0,1.0,0,1.0,0,1.0,0,1.0
256,'1',150.33811054,33.02745658,92.964,-92.964,1.45630295,0,100.0,0.0,1.0,0.0,0.0,1.0,1,100.0,267.368,2.0,1,1.0,0,1.0,0,1.0,0,1.0,0,1.0
267,'99',141.67843407,16.79169071,160.0,-160.0,1.76744941,0,100.0,0.0,1.0,0.0,0.0,1.0,1,100.0,309.474,2.626,1,1.0,0,1.0,0,1.0,0,1.0,0,1.0
268,'99',249.9671437,102.10429475,160.0,-160.0,1.39759243,0,100.0,0.0,1.0,0.0,0.0,1.0,1,100.0,422.316,97.451,1,1.0,0,1.0,0,1.0,0,1.0,0,1.0
269,'L1',9.37116161,-1.65996965,-1.659,-1.661,1.64391658,0,100.0,0.0,1.0,0.0,0.0,1.0,1,100.0,9.372,9.37,1,1.0,0,1.0,0,1.0,0,1.0,0,1.0
272,'99',47.01704226,117.02131418,160.0,-160.0,1.53617005,0,100.0,0.0,1.0,0.0,0.0,1.0,1,100.0,78.395,15.257,1,1.0,0,1.0,0,1.0,0,1.0,0,1.0
275,'99',40.07262714,32.14014167,160.0,-160.0,1.57981952,0,100.0,0.0,1.0,0.0,0.0,1.0,1,100.0,76.902,1.461,1,1.0,0,1.0,0,1.0,0,1.0,0,1.0
281,'99',137.17112687,57.98229569,160.0,-160.0,1.80691306,0,100.0,0.0,1.0,0.0,0.0,1.0,1,100.0,286.316,1.782,1,1.0,0,1.0,0,1.0,0,1.0,0,1.0
293,'1',0.0,0.0,76.667,-76.667,1.40255996,0,100.0,0.0,1.0,0.0,0.0,1.0,0,100.0,173.25,117.8,1,1.0,0,1.0,0,1.0,0,1.0,0,1.0
296,'1',0.0,0.0,76.667,-76.667,1.40255996,0,100.0,0.0,1.0,0.0,0.0,1.0,0,100.0,173.25,117.8,1,1.0,0,1.0,0,1.0,0,1.0,0,1.0
298,'99',16.59757763,68.62369556,160.0,-160.0,1.76168214,0,100.0,0.0,1.0,0.0,0.0,1.0,1,100.0,29.593,3.981,1,1.0,0,1.0,0,1.0,0,1.0,0,1.0
301,'L2',2.48993741,-2.35900598,-2.358,-2.36,1.61829823,0,100.0,0.0,1.0,0.0,0.0,1.0,1,100.0,2.491,2.489,1,1.0,0,1.0,0,1.0,0,1.0,0,1.0
303,'97',67.85809035,14.67507789,43.92,-43.92,1.66825724,0,100.0,0.0,1.0,0.0,0.0,1.0,1,100.0,126.316,5.0,1,1.0,0,1.0,0,1.0,0,1.0,0,1.0
304,'99',0.0,0.0,33.333,-33.333,1.50528691,0,100.0,0.0,1.0,0.0,0.0,1.0,0,100.0,44.434,29.434,1,1.0,0,1.0,0,1.0,0,1.0,0,1.0
305,'1',0.0,0.0,76.667,-76.667,1.40255996,0,100.0,0.0,1.0,0.0,0.0,1.0,0,100.0,173.25,117.8,1,1.0,0,1.0,0,1.0,0,1.0,0,1.0
307,'99',20.7923344,24.37406809,160.0,-160.0,1.67195551,0,100.0,0.0,1.0,0.0,0.0,1.0,1,100.0,38.823,6.644,1,1.0,0,1.0,0,1.0,0,1.0,0,1.0
309,'1',0.0,0.0,147.09,-81.3,1.28039459,0,100.0,0.0,1.0,0.0,0.0,1.0,0,100.0,519.615,198.808,1,1.0,0,1.0,0,1.0,0,1.0,0,1.0
326,'1',0.0,0.0,76.667,-76.667,1.40255996,0,100.0,0.0,1.0,0.0,0.0,1.0,0,100.0,173.25,117.8,1,1.0,0,1.0,0,1.0,0,1.0,0,1.0
335,'1',0.0,0.0,76.667,-76.667,1.40255996,0,100.0,0.0,1.0,0.0,0.0,1.0,0,100.0,173.25,117.8,1,1.0,0,1.0,0,1.0,0,1.0,0,1.0
337,'99',104.38834111,34.43360522,160.0,-160.0,1.79496319,0,100.0,0.0,1.0,0.0,0.0,1.0,1,100.0,272.632,1.907,1,1.0,0,1.0,0,1.0,0,1.0,0,1.0
339,'L1',2.47894088,-0.7099875,-0.709,-0.711,1.60166943,0,100.0,0.0,1.0,0.0,0.0,1.0,1,100.0,2.48,2.478,1,1.0,0,1.0,0,1.0,0,1.0,0,1.0
342,'1',0.0,0.0,99.918,-99.918,1.34941078,0,100.0,0.0,1.0,0.0,0.0,1.0,0,100.0,287.368,2.0,1,1.0,0,1.0,0,1.0,0,1.0,0,1.0
345,'99',15.91231266,28.19881175,160.0,-160.0,1.76913493,0,100.0,0.0,1.0,0.0,0.0,1.0,1,100.0,28.717,3.729,1,1.0,0,1.0,0,1.0,0,1.0,0,1.0
350,'99',75.01874244,56.57193446,160.0,-160.0,1.70487309,0,100.0,0.0,1.0,0.0,0.0,1.0,1,100.0,134.156,34.142,1,1.0,0,1.0,0,1.0,0,1.0,0,1.0
352,'1',0.0,0.0,302.333,-302.333,1.38784521,0,100.0,0.0,1.0,0.0,0.0,1.0,0,100.0,254.0,2.0,1,1.0,0,1.0,0,1.0,0,1.0,0,1.0
353,'99',67.04364579,45.31872354,160.0,-160.0,1.63289834,0,100.0,0.0,1.0,0.0,0.0,1.0,1,100.0,124.492,25.542,1,1.0,0,1.0,0,1.0,0,1.0,0,1.0
357,'99',0.0,0.0,33.333,-33.333,1.50180319,0,100.0,0.0,1.0,0.0,0.0,1.0,0,100.0,137.965,122.965,1,1.0,0,1.0,0,1.0,0,1.0,0,1.0
361,'99',305.97685165,-108.15610165,160.0,-160.0,1.64318336,0,100.0,0.0,1.0,0.0,0.0,1.0,1,100.0,526.43,129.035,1,1.0,0,1.0,0,1.0,0,1.0,0,1.0
364,'99',0.0,0.0,33.333,-33.333,1.52295742,0,100.0,0.0,1.0,0.0,0.0,1.0,0,100.0,42.029,27.029,1,1.0,0,1.0,0,1.0,0,1.0,0,1.0
370,'1',0.0,0.0,92.945,-62.0,1.6191183,0,100.0,0.0,1.0,0.0,0.0,1.0,0,100.0,267.313,99.538,1,1.0,0,1.0,0,1.0,0,1.0,0,1.0
370,'2',0.0,0.0,92.945,-62.0,1.6191183,0,100.0,0.0,1.0,0.0,0.0,1.0,0,100.0,267.313,99.538,1,1.0,0,1.0,0,1.0,0,1.0,0,1.0
370,'3',0.0,0.0,92.945,-75.0,1.6191183,0,100.0,0.0,1.0,0.0,0.0,1.0,0,100.0,267.313,99.538,1,1.0,0,1.0,0,1.0,0,1.0,0,1.0
371,'1',98.77279709,-37.125631,65.514,-65.514,1.61936398,0,100.0,0.0,1.0,0.0,0.0,1.0,1,100.0,188.421,2.0,1,1.0,0,1.0,0,1.0,0,1.0,0,1.0
373,'1',36.69586883,1.06154394,20.13,-20.13,1.52735632,0,100.0,0.0,1.0,0.0,0.0,1.0,1,100.0,57.895,26.0,1,1.0,0,1.0,0,1.0,0,1.0,0,1.0
374,'1',0.0,0.0,18.333,-18.333,1.52685219,0,100.0,0.0,1.0,0.0,0.0,1.0,0,100.0,55.0,26.0,1,1.0,0,1.0,0,1.0,0,1.0,0,1.0
375,'1',0.0,0.0,107.604,-107.604,1.43859165,0,100.0,0.0,1.0,0.0,0.0,1.0,0,100.0,309.474,2.0,1,1.0,0,1.0,0,1.0,0,1.0,0,1.0
376,'1',0.0,0.0,9.516,-9.516,1.54771303,0,100.0,0.0,1.0,0.0,0.0,1.0,0,100.0,27.368,2.0,1,1.0,0,1.0,0,1.0,0,1.0,0,1.0
376,'99',0.0,0.0,33.333,-33.333,1.54771303,0,100.0,0.0,1.0,0.0,0.0,1.0,0,100.0,261.0,3.293,1,1.0,0,1.0,0,1.0,0,1.0,0,1.0
380,'99',0.0,0.0,33.333,-33.333,1.57469646,0,100.0,0.0,1.0,0.0,0.0,1.0,0,100.0,33.035,18.035,1,1.0,0,1.0,0,1.0,0,1.0,0,1.0
384,'1',0.0,0.0,6.588,-6.588,1.46761229,0,100.0,0.0,1.0,0.0,0.0,1.0,0,100.0,18.947,2.0,1,1.0,0,1.0,0,1.0,0,1.0,0,1.0
385,'1',12.2320057,-0.17888493,8.052,-8.052,1.46645551,0,100.0,0.0,1.0,0.0,0.0,1.0,1,100.0,23.158,2.0,1,1.0,0,1.0,0,1.0,0,1.0,0,1.0
390,'99',0.0,0.0,33.333,-33.333,1.39729099,0,100.0,0.0,1.0,0.0,0.0,1.0,0,100.0,28.078,13.078,1,1.0,0,1.0,0,1.0,0,1.0,0,1.0
391,'1',169.68846307,-53.01664055,108.336,-108.336,1.44549344,0,100.0,0.0,1.0,0.0,0.0,1.0,1,100.0,311.579,2.0,1,1.0,0,1.0,0,1.0,0,1.0,0,1.0
395,'1',0.0,0.0,97.722,-97.722,1.45077207,0,100.0,0.0,1.0,0.0,0.0,1.0,0,100.0,281.053,2.0,1,1.0,0,1.0,0,1.0,0,1.0,0,1.0
401,'1',0.0,0.0,94.794,-94.794,1.57437195,0,100.0,0.0,1.0,0.0,0.0,1.0,0,100.0,272.632,2.0,1,1.0,0,1.0,0,1.0,0,1.0,0,1.0
402,'1',0.0,0.0,96.258,-96.258,1.43451792,0,100.0,0.0,1.0,0.0,0.0,1.0,0,100.0,276.842,2.0,1,1.0,0,1.0,0,1.0,0,1.0,0,1.0
408,'1',0.0,0.0,107.97,-107.97,1.43250733,0,100.0,0.0,1.0,0.0,0.0,1.0,0,100.0,310.526,2.0,1,1.0,0,1.0,0,1.0,0,1.0,0,1.0
414,'1',0.0,0.0,100.65,-100.65,1.47091289,0,100.0,0.0,1.0,0.0,0.0,1.0,0,100.0,289.474,2.0,1,1.0,0,1.0,0,1.0,0,1.0,0,1.0
416,'1',160.41159312,-46.45915377,101.016,-101.016,1.44822553,0,100.0,0.0,1.0,0.0,0.0,1.0,1,100.0,290.526,2.0,1,1.0,0,1.0,0,1.0,0,1.0,0,1.0
422,'99',64.08795602,-35.8493319,160.0,-160.0,1.44383398,0,100.0,0.0,1.0,0.0,0.0,1.0,1,100.0,123.413,3.78,1,1.0,0,1.0,0,1.0,0,1.0,0,1.0
428,'1',157.72718543,19.47658411,101.016,-101.016,1.62022346,0,100.0,0.0,1.0,0.0,0.0,1.0,1,100.0,290.526,2.0,1,1.0,0,1.0,0,1.0,0,1.0,0,1.0
428,'2',0.0,0.0,97.356,-97.356,1.62022346,0,100.0,0.0,1.0,0.0,0.0,1.0,0,100.0,280.0,2.0,1,1.0,0,1.0,0,1.0,0,1.0,0,1.0
428,'3',158.10841848,22.13799771,107.97,-107.97,1.62022346,0,100.0,0.0,1.0,0.0,0.0,1.0,1,100.0,310.526,2.0,1,1.0,0,1.0,0,1.0,0,1.0,0,1.0
436,'99',62.58907757,-94.23500114,160.0,-160.0,1.5741868,0,100.0,0.0,1.0,0.0,0.0,1.0,1,100.0,121.822,11.915,1,1.0,0,1.0,0,1.0,0,1.0,0,1.0
437,'99',92.60728141,-97.07758027,160.0,-160.0,1.60984723,0,100.0,0.0,1.0,0.0,0.0,1.0,1,100.0,179.592,22.39,1,1.0,0,1.0,0,1.0,0,1.0,0,1.0
442,'99',0.0,0.0,33.333,-33.333,1.55087126,0,100.0,0.0,1.0,0.0,0.0,1.0,0,100.0,275.0,2.602,1,1.0,0,1.0,0,1.0,0,1.0,0,1.0
443,'99',0.0,0.0,33.333,-33.333,1.54852928,0,100.0,0.0,1.0,0.0,0.0,1.0,0,100.0,29.367,14.367,1,1.0,0,1.0,0,1.0,0,1.0,0,1.0
444,'1',0.0,0.0,1.333,-1.333,1.57527023,0,100.0,0.0,1.0,0.0,0.0,1.0,0,100.0,289.0,3.0,1,1.0,0,1.0,0,1.0,0,1.0,0,1.0
449,'99',25.48217884,47.84744547,160.0,-160.0,1.60940679,0,100.0,0.0,1.0,0.0,0.0,1.0,1,100.0,47.8,6.299,1,1.0,0,1.0,0,1.0,0,1.0,0,1.0
469,'1',148.49437634,23.01348814,92.964,-92.964,1.56411924,0,100.0,0.0,1.0,0.0,0.0,1.0,1,100.0,267.368,2.0,1,1.0,0,1.0,0,1.0,0,1.0,0,1.0
470,'1',0.0,0.0,11.667,-11.667,1.55924684,0,100.0,0.0,1.0,0.0,0.0,1.0,0,100.0,35.0,9.0,1,1.0,0,1.0,0,1.0,0,1.0,0,1.0
470,'2',0.0,0.0,9.201,-9.201,1.55924684,0,100.0,0.0,1.0,0.0,0.0,1.0,0,100.0,26.461,9.0,1,1.0,0,1.0,0,1.0,0,1.0,0,1.0
471,'1',0.0,0.0,11.667,-11.667,1.5591334,0,100.0,0.0,1.0,0.0,0.0,1.0,0,100.0,35.0,9.0,1,1.0,0,1.0,0,1.0,0,1.0,0,1.0
471,'2',0.0,0.0,10.0,-10.0,1.5591334,0,100.0,0.0,1.0,0.0,0.0,1.0,0,100.0,30.0,9.0,1,1.0,0,1.0,0,1.0,0,1.0,0,1.0
471,'3',0.0,0.0,9.333,-9.333,1.5591334,0,100.0,0.0,1.0,0.0,0.0,1.0,0,100.0,28.0,9.0,1,1.0,0,1.0,0,1.0,0,1.0,0,1.0
474,'99',37.05019828,70.67788091,160.0,-160.0,1.55474549,0,100.0,0.0,1.0,0.0,0.0,1.0,1,100.0,70.019,10.13,1,1.0,0,1.0,0,1.0,0,1.0,0,1.0
480,'99',35.3652456,-14.22829177,160.0,-160.0,1.47904284,0,100.0,0.0,1.0,0.0,0.0,1.0,1,100.0,65.965,14.473,1,1.0,0,1.0,0,1.0,0,1.0,0,1.0
481,'99',28.84230192,-30.61964978,160.0,-160.0,1.48171266,0,100.0,0.0,1.0,0.0,0.0,1.0,1,100.0,53.3,10.82,1,1.0,0,1.0,0,1.0,0,1.0,0,1.0
482,'99',56.02161985,14.26357962,160.0,-160.0,1.48226506,0,100.0,0.0,1.0,0.0,0.0,1.0,1,100.0,100.941,24.561,1,1.0,0,1.0,0,1.0,0,1.0,0,1.0
483,'99',167.10412222,-72.08986581,160.0,-160.0,1.47602711,0,100.0,0.0,1.0,0.0,0.0,1.0,1,100.0,306.331,50.888,1,1.0,0,1.0,0,1.0,0,1.0,0,1.0
487,'99',75.87311645,-0.45566869,160.0,-160.0,1.47764193,0,100.0,0.0,1.0,0.0,0.0,1.0,1,100.0,135.14,34.426,1,1.0,0,1.0,0,1.0,0,1.0,0,1.0
490,'99',48.77397638,9.17238725,160.0,-160.0,1.47663764,0,100.0,0.0,1.0,0.0,0.0,1.0,1,100.0,83.565,19.549,1,1.0,0,1.0,0,1.0,0,1.0,0,1.0
494,'99',44.17036967,-5.3571902,160.0,-160.0,1.48827375,0,100.0,0.0,1.0,0.0,0.0,1.0,1,100.0,83.599,10.194,1,1.0,0,1.0,0,1.0,0,1.0,0,1.0
499,'99',48.12351674,9.25293487,160.0,-160.0,1.527502,0,100.0,0.0,1.0,0.0,0.0,1.0,1,100.0,89.883,18.303,1,1.0,0,1.0,0,1.0,0,1.0,0,1.0
525,'99',0.0,0.0,33.333,-33.333,1.47355623,0,100.0,0.0,1.0,0.0,0.0,1.0,0,100.0,203.917,188.917,1,1.0,0,1.0,0,1.0,0,1.0,0,1.0
549,'99',32.06558424,33.25138599,160.0,-160.0,1.56314935,0,100.0,0.0,1.0,0.0,0.0,1.0,1,100.0,58.576,7.318,1,1.0,0,1.0,0,1.0,0,1.0,0,1.0
559,'1',0.0,0.0,31.015,-31.015,1.47885741,0,100.0,0.0,1.0,0.0,0.0,1.0,0,100.0,80.5,31.0,1,1.0,0,1.0,0,1.0,0,1.0,0,1.0
564,'1',0.0,0.0,47.69,-11.618,1.47590489,0,100.0,0.0,1.0,0.0,0.0,1.0,0,100.0,137.159,36.178,1,1.0,0,1.0,0,1.0,0,1.0,0,1.0
565,'1',76.52748883,7.06805885,47.692,-11.62,1.47649987,0,100.0,0.0,1.0,0.0,0.0,1.0,1,100.0,137.164,38.4,1,1.0,0,1.0,0,1.0,0,1.0,0,1.0
566,'1',0.0,0.0,47.692,-11.62,1.47590489,0,100.0,0.0,1.0,0.0,0.0,1.0,0,100.0,137.164,26.42,1,1.0,0,1.0,0,1.0,0,1.0,0,1.0
567,'1',0.0,0.0,47.692,-11.62,1.47590489,0,100.0,0.0,1.0,0.0,0.0,1.0,0,100.0,137.164,13.12,1,1.0,0,1.0,0,1.0,0,1.0,0,1.0
568,'1',0.0,0.0,47.69,-11.618,1.47590489,0,100.0,0.0,1.0,0.0,0.0,1.0,0,100.0,137.159,52.077,1,1.0,0,1.0,0,1.0,0,1.0,0,1.0
569,'1',73.57671728,7.06662718,47.692,-11.62,1.47659939,0,100.0,0.0,1.0,0.0,0.0,1.0,1,100.0,137.164,23.76,1,1.0,0,1.0,0,1.0,0,1.0,0,1.0
570,'1',0.0,0.0,44.179,-44.179,1.47590489,0,100.0,0.0,1.0,0.0,0.0,1.0,0,100.0,95.0,40.98,1,1.0,0,1.0,0,1.0,0,1.0,0,1.0
571,'1',71.31099316,7.13353043,43.286,-10.545,1.47672465,0,100.0,0.0,1.0,0.0,0.0,1.0,1,100.0,124.493,41.357,1,1.0,0,1.0,0,1.0,0,1.0,0,1.0
572,'1',0.0,0.0,43.286,-10.54,1.47590489,0,100.0,0.0,1.0,0.0,0.0,1.0,0,100.0,124.493,39.82,1,1.0,0,1.0,0,1.0,0,1.0,0,1.0
573,'1',0.0,0.0,5.906,-5.906,1.48559026,0,100.0,0.0,1.0,0.0,0.0,1.0,0,100.0,16.985,2.0,1,1.0,0,1.0,0,1.0,0,1.0,0,1.0
576,'99',0.0,0.0,33.333,-33.333,1.34669514,0,100.0,0.0,1.0,0.0,0.0,1.0,0,100.0,85.769,70.769,1,1.0,0,1.0,0,1.0,0,1.0,0,1.0
578,'1',157.72251649,23.73404074,75.03,-21.0,1.37015662,0,100.0,0.0,1.0,0.0,0.0,1.0,1,100.0,215.789,135.0,1,1.0,0,1.0,0,1.0,0,1.0,0,1.0
579,'2',0.0,0.0,68.333,-68.333,1.37009161,0,100.0,0.0,1.0,0.0,0.0,1.0,0,100.0,205.0,135.0,1,1.0,0,1.0,0,1.0,0,1.0,0,1.0
579,'3',0.0,0.0,84.912,-31.0,1.37009161,0,100.0,0.0,1.0,0.0,0.0,1.0,0,100.0,244.211,100.0,1,1.0,0,1.0,0,1.0,0,1.0,0,1.0
579,'98',191.31510712,-44.83941533,183.0,-183.0,1.37009161,0,100.0,0.0,1.0,0.0,0.0,1.0,1,100.0,526.316,2.0,1,1.0,0,1.0,0,1.0,0,1.0,0,1.0
580,'1',0.0,0.0,91.616,-15.0,1.47283106,0,100.0,0.0,1.0,0.0,0.0,1.0,0,100.0,263.492,90.0,1,1.0,0,1.0,0,1.0,0,1.0,0,1.0
581,'1',0.0,0.0,77.333,-77.333,1.4726595,0,100.0,0.0,1.0,0.0,0.0,1.0,0,100.0,232.0,100.0,1,1.0,0,1.0,0,1.0,0,1.0,0,1.0
581,'2',0.0,0.0,91.5,-15.0,1.4726595,0,100.0,0.0,1.0,0.0,0.0,1.0,0,100.0,263.158,90.0,1,1.0,0,1.0,0,1.0,0,1.0,0,1.0
587,'99',390.64851139,-119.73625856,160.0,-160.0,1.40812567,0,100.0,0.0,1.0,0.0,0.0,1.0,1,100.0,963.105,72.892,1,1.0,0,1.0,0,1.0,0,1.0,0,1.0
591,'99',0.0,0.0,33.333,-33.333,1.44334523,0,100.0,0.0,1.0,0.0,0.0,1.0,0,100.0,74.949,59.949,1,1.0,0,1.0,0,1.0,0,1.0,0,1.0
596,'1',143.77831298,37.73237719,81.252,-19.0,1.44894032,0,100.0,0.0,1.0,0.0,0.0,1.0,1,100.0,233.684,90.0,1,1.0,0,1.0,0,1.0,0,1.0,0,1.0
599,'1',0.0,0.0,0.333,-0.333,1.48920781,0,100.0,0.0,1.0,0.0,0.0,1.0,0,100.0,299.0,2.0,1,1.0,0,1.0,0,1.0,0,1.0,0,1.0
602,'1',0.0,0.0,7.32,-7.32,1.47523051,0,100.0,0.0,1.0,0.0,0.0,1.0,0,100.0,21.053,5.0,1,1.0,0,1.0,0,1.0,0,1.0,0,1.0
611,'1',0.0,0.0,9.516,-9.516,1.67829774,0,100.0,0.0,1.0,0.0,0.0,1.0,0,100.0,27.368,2.0,1,1.0,0,1.0,0,1.0,0,1.0,0,1.0
619,'1',0.0,0.0,0.333,-0.333,1.72745446,0,100.0,0.0,1.0,0.0,0.0,1.0,0,100.0,252.0,2.0,1,1.0,0,1.0,0,1.0,0,1.0,0,1.0
620,'1',153.03375931,-46.25918003,94.428,-94.428,1.72707892,0,100.0,0.0,1.0,0.0,0.0,1.0,1,100.0,271.579,2.0,1,1.0,0,1.0,0,1.0,0,1.0,0,1.0
623,'99',0.0,0.0,33.333,-33.333,1.74449799,0,100.0,0.0,1.0,0.0,0.0,1.0,0,100.0,259.0,5.802,1,1.0,0,1.0,0,1.0,0,1.0,0,1.0
625,'1',27.69290625,-2.44932049,18.3,-18.3,1.72879941,0,100.0,0.0,1.0,0.0,0.0,1.0,1,100.0,52.632,2.0,1,1.0,0,1.0,0,1.0,0,1.0,0,1.0
630,'1',173.52586672,-13.59796106,101.382,-101.382,1.3660922,0,100.0,0.0,1.0,0.0,0.0,1.0,1,100.0,291.579,2.0,1,1.0,0,1.0,0,1.0,0,1.0,0,1.0
633,'99',74.43205447,-77.35554252,160.0,-160.0,1.61048118,0,100.0,0.0,1.0,0.0,0.0,1.0,1,100.0,145.216,10.951,1,1.0,0,1.0,0,1.0,0,1.0,0,1.0
634,'99',146.48752503,-87.50395302,160.0,-160.0,1.60679388,0,100.0,0.0,1.0,0.0,0.0,1.0,1,100.0,296.567,15.443,1,1.0,0,1.0,0,1.0,0,1.0,0,1.0
639,'99',0.0,0.0,33.333,-33.333,1.40856038,0,100.0,0.0,1.0,0.0,0.0,1.0,0,100.0,85.248,70.248,1,1.0,0,1.0,0,1.0,0,1.0,0,1.0
640,'99',0.0,0.0,33.333,-33.333,1.40909062,0,100.0,0.0,1.0,0.0,0.0,1.0,0,100.0,221.788,206.788,1,1.0,0,1.0,0,1.0,0,1.0,0,1.0
645,'1',159.36720468,-6.49813981,92.855,-62.0,1.61394022,0,100.0,0.0,1.0,0.0,0.0,1.0,1,100.0,267.056,98.483,1,1.0,0,1.0,0,1.0,0,1.0,0,1.0
645,'2',0.0,0.0,92.855,-62.0,1.61394022,0,100.0,0.0,1.0,0.0,0.0,1.0,0,100.0,267.056,98.483,1,1.0,0,1.0,0,1.0,0,1.0,0,1.0
645,'3',159.36757982,-16.50780275,92.855,-75.0,1.61394022,0,100.0,0.0,1.0,0.0,0.0,1.0,1,100.0,267.056,98.483,1,1.0,0,1.0,0,1.0,0,1.0,0,1.0
646,'1',97.49053078,-16.07794971,65.514,-65.514,1.613903,0,100.0,0.0,1.0,0.0,0.0,1.0,1,100.0,188.421,2.0,1,1.0,0,1.0,0,1.0,0,1.0,0,1.0
648,'98',154.45452362,35.25859487,183.0,-183.0,1.77681314,0,100.0,0.0,1.0,0.0,0.0,1.0,1,100.0,526.316,2.0,1,1.0,0,1.0,0,1.0,0,1.0,0,1.0
649,'1',0.0,0.0,20.13,-20.13,1.63915438,0,100.0,0.0,1.0,0.0,0.0,1.0,0,100.0,57.895,26.0,1,1.0,0,1.0,0,1.0,0,1.0,0,1.0
650,'1',0.0,0.0,18.333,-18.333,1.63900811,0,100.0,0.0,1.0,0.0,0.0,1.0,0,100.0,55.0,26.0,1,1.0,0,1.0,0,1.0,0,1.0,0,1.0
652,'1',138.671786,57.40840571,98.82,-98.82,1.86998111,0,100.0,0.0,1.0,0.0,0.0,1.0,1,100.0,284.211,2.0,1,1.0,0,1.0,0,1.0,0,1.0,0,1.0
652,'98',137.33661197,135.13084849,183.0,-183.0,1.86998111,0,100.0,0.0,1.0,0.0,0.0,1.0,1,100.0,526.316,2.0,1,1.0,0,1.0,0,1.0,0,1.0,0,1.0
659,'1',10.08527188,-0.02285724,6.588,-6.588,1.67139018,0,100.0,0.0,1.0,0.0,0.0,1.0,1,100.0,18.947,2.0,1,1.0,0,1.0,0,1.0,0,1.0,0,1.0
660,'1',0.0,0.0,8.052,-8.052,1.67125925,0,100.0,0.0,1.0,0.0,0.0,1.0,0,100.0,23.158,2.0,1,1.0,0,1.0,0,1.0,0,1.0,0,1.0
667,'1',141.75408816,38.49041631,108.702,-108.702,1.85424752,0,100.0,0.0,1.0,0.0,0.0,1.0,1,100.0,312.632,2.0,1,1.0,0,1.0,0,1.0,0,1.0,0,1.0
667,'98',170.99495943,92.71358502,183.0,-183.0,1.85424752,0,100.0,0.0,1.0,0.0,0.0,1.0,1,100.0,526.316,2.0,1,1.0,0,1.0,0,1.0,0,1.0,0,1.0
674,'1',137.56045766,-14.81029942,100.284,-100.284,1.67594134,0,100.0,0.0,1.0,0.0,0.0,1.0,1,100.0,288.421,2.0,1,1.0,0,1.0,0,1.0,0,1.0,0,1.0
675,'1',8.51178436,-0.12212078,5.49,-5.49,1.59973363,0,100.0,0.0,1.0,0.0,0.0,1.0,1,100.0,15.789,2.0,1,1.0,0,1.0,0,1.0,0,1.0,0,1.0
679,'1',130.98679233,-9.3047338,93.33,-93.33,1.63368067,0,100.0,0.0,1.0,0.0,0.0,1.0,1,100.0,268.421,2.0,1,1.0,0,1.0,0,1.0,0,1.0,0,1.0
684,'1',155.53865602,84.01867145,107.97,-107.97,1.69973342,0,100.0,0.0,1.0,0.0,0.0,1.0,1,100.0,310.526,2.0,1,1.0,0,1.0,0,1.0,0,1.0,0,1.0
684,'99',0.0,0.0,33.333,-33.333,1.69973342,0,100.0,0.0,1.0,0.0,0.0,1.0,0,100.0,34.44,19.44,1,1.0,0,1.0,0,1.0,0,1.0,0,1.0
688,'1',143.43551889,-4.13726564,98.088,-98.088,1.67153238,0,100.0,0.0,1.0,0.0,0.0,1.0,1,100.0,282.105,2.0,1,1.0,0,1.0,0,1.0,0,1.0,0,1.0
690,'1',150.92660266,21.20317159,106.506,-106.506,1.82935452,0,100.0,0.0,1.0,0.0,0.0,1.0,1,100.0,306.316,2.0,1,1.0,0,1.0,0,1.0,0,1.0,0,1.0
690,'98',160.37118233,58.51751513,183.0,-183.0,1.82935452,0,100.0,0.0,1.0,0.0,0.0,1.0,1,100.0,526.316,2.0,1,1.0,0,1.0,0,1.0,0,1.0,0,1.0
693,'98',127.36511859,-58.7546005,183.0,-183.0,1.67249145,0,100.0,0.0,1.0,0.0,0.0,1.0,1,100.0,526.316,2.0,1,1.0,0,1.0,0,1.0,0,1.0,0,1.0
696,'99',0.0,0.0,33.333,-33.333,1.51822823,0,100.0,0.0,1.0,0.0,0.0,1.0,0,100.0,28.122,13.122,1,1.0,0,1.0,0,1.0,0,1.0,0,1.0
697,'99',0.0,0.0,33.333,-33.333,1.51259582,0,100.0,0.0,1.0,0.0,0.0,1.0,0,100.0,257.0,4.417,1,1.0,0,1.0,0,1.0,0,1.0,0,1.0
...
0 / END OF GENERATOR DATA BEGIN BRANCH DATA
1,60,'1',0.02461,0.07336,0.00802,320.0,320.0,320.0,0.0,0.0,0.0,0.0,1,1,0.0,1,1.0,0,1.0,0,1.0,0,1.0
1,93,'1',0.03244,0.09513,0.01073,320.0,320.0,320.0,0.0,0.0,0.0,0.0,1,1,0.0,1,1.0,0,1.0,0,1.0,0,1.0
2,74,'1',0.00068,0.00368,0.00043,312.5,312.5,312.5,0.0,0.0,0.0,0.0,1,1,0.0,1,1.0,0,1.0,0,1.0,0,1.0
2,549,'1',0.0001,0.01,0.0,299.525,359.5,359.5,0.0,0.0,0.0,0.0,1,1,0.0,1,1.0,0,1.0,0,1.0,0,1.0
4,43,'1',0.0037,0.01909,0.00247,475.0,475.0,475.0,0.0,0.0,0.0,0.0,1,1,0.0,1,1.0,0,1.0,0,1.0,0,1.0
4,93,'1',0.00349,0.01802,0.00231,475.0,475.0,475.0,0.0,0.0,0.0,0.0,1,1,0.0,1,1.0,0,1.0,0,1.0,0,1.0
7,60,'1',0.01649,0.04916,0.00537,320.0,320.0,320.0,0.0,0.0,0.0,0.0,1,1,0.0,1,1.0,0,1.0,0,1.0,0,1.0
7,73,'1',0.00374,0.01116,0.00122,320.0,320.0,320.0,0.0,0.0,0.0,0.0,1,1,0.0,1,1.0,0,1.0,0,1.0,0,1.0
10,27,'1',0.0125,0.02353,0.00262,185.0,185.0,185.0,0.0,0.0,0.0,0.0,1,1,0.0,1,1.0,0,1.0,0,1.0,0,1.0
11,92,'1',0.00236,0.00669,0.00079,155.0,155.0,155.0,0.0,0.0,0.0,0.0,1,1,0.0,1,1.0,0,1.0,0,1.0,0,1.0
16,93,'1',0.00506,0.01482,0.00168,833.625,962.0,962.0,0.0,0.0,0.0,0.0,1,1,0.0,1,1.0,0,1.0,0,1.0,0,1.0
17,81,'1',0.00892,0.05374,0.01281,622.5,622.5,622.5,0.0,0.0,0.0,0.0,1,1,0.0,1,1.0,0,1.0,0,1.0,0,1.0
17,93,'1',0.0001,0.001,0.0,650.0,780.0,780.0,0.0,0.0,0.0,0.0,1,1,0.0,1,1.0,0,1.0,0,1.0,0,1.0
18,66,'1',2e-05,0.001,0.0,832.5,875.0,875.0,0.0,0.0,0.0,0.0,1,1,0.0,1,1.0,0,1.0,0,1.0,0,1.0
19,31,'1',0.00071,0.00582,0.01221,1275.0,1275.0,1275.0,0.0,0.0,0.0,0.0,1,1,0.0,1,1.0,0,1.0,0,1.0,0,1.0
19,35,'1',7e-05,0.001,0.00171,1410.0,1530.0,1530.0,0.0,0.0,0.0,0.0,1,1,0.0,1,1.0,0,1.0,0,1.0,0,1.0
19,69,'1',0.0001,0.001,0.0,650.0,780.0,780.0,0.0,0.0,0.0,0.0,1,1,0.0,1,1.0,0,1.0,0,1.0,0,1.0
21,57,'1',0.04598,0.09139,0.00983,215.0,215.0,215.0,0.0,0.0,0.0,0.0,1,1,0.0,1,1.0,0,1.0,0,1.0,0,1.0
21,91,'1',0.02947,0.10073,0.01266,215.0,215.0,215.0,0.0,0.0,0.0,0.0,1,1,0.0,1,1.0,0,1.0,0,1.0,0,1.0
22,67,'1',0.01108,0.04402,0.00618,590.675,708.75,708.75,0.0,0.0,0.0,0.0,1,1,0.0,1,1.0,0,1.0,0,1.0,0,1.0
22,73,'1',0.00993,0.03804,0.00535,563.65,676.5,676.5,0.0,0.0,0.0,0.0,1,1,0.0,1,1.0,0,1.0,0,1.0,0,1.0
23,44,'1',0.00266,0.01058,0.0015,692.325,830.75,830.75,0.0,0.0,0.0,0.0,1,1,0.0,1,1.0,0,1.0,0,1.0,0,1.0
23,137,'1',0.0001,0.01,0.0,381.875,458.25,458.25,0.0,0.0,0.0,0.0,1,1,0.0,1,1.0,0,1.0,0,1.0,0,1.0
23,254,'1',0.0001,0.01,0.0,750.0,1000.0,1000.0,0.0,0.0,0.0,0.0,1,1,0.0,1,1.0,0,1.0,0,1.0,0,1.0
24,94,'1',0.00489,0.02021,0.00261,352.5,382.5,382.5,0.0,0.0,0.0,0.0,1,1,0.0,1,1.0,0,1.0,0,1.0,0,1.0
27,72,'1',0.01151,0.02166,0.00241,185.0,185.0,185.0,0.0,0.0,0.0,0.0,1,1,0.0,1,1.0,0,1.0,0,1.0,0,1.0
30,73,'1',0.01736,0.07168,0.00928,412.5,412.5,412.5,0.0,0.0,0.0,0.0,1,1,0.0,1,1.0,0,1.0,0,1.0,0,1.0
30,94,'1',0.01303,0.05385,0.00695,352.5,382.5,382.5,0.0,0.0,0.0,0.0,1,1,0.0,1,1.0,0,1.0,0,1.0,0,1.0
31,38,'1',0.00032,0.00211,0.00427,1015.0,1080.0,1080.0,0.0,0.0,0.0,0.0,1,1,0.0,1,1.0,0,1.0,0,1.0,0,1.0
31,66,'1',0.00151,0.01243,0.02626,1242.5,1242.5,1242.5,0.0,0.0,0.0,0.0,1,1,0.0,1,1.0,0,1.0,0,1.0,0,1.0
31,66,'2',0.00151,0.01236,0.02612,1275.0,1275.0,1275.0,0.0,0.0,0.0,0.0,1,1,0.0,1,1.0,0,1.0,0,1.0,0,1.0
31,146,'1',1.51,12.43,0.02626,1242.5,1242.5,1242.5,0.0,0.0,0.0,0.0,1,1,0.0,1,1.0,0,1.0,0,1.0,0,1.0
32,50,'1',0.0092,0.02296,0.00287,650.0,780.0,780.0,0.0,0.0,0.0,0.0,1,1,0.0,1,1.0,0,1.0,0,1.0,0,1.0
32,72,'1',0.02022,0.04363,0.00517,185.0,185.0,185.0,0.0,0.0,0.0,0.0,1,1,0.0,1,1.0,0,1.0,0,1.0,0,1.0
33,36,'1',0.0001,0.001,0.0,650.0,780.0,780.0,0.0,0.0,0.0,0.0,1,1,0.0,1,1.0,0,1.0,0,1.0,0,1.0
36,38,'1',0.00062,0.00521,0.01419,1582.5,1582.5,1582.5,0.0,0.0,0.0,0.0,1,1,0.0,1,1.0,0,1.0,0,1.0,0,1.0
36,45,'1',0.0001,0.001,0.0,650.0,780.0,780.0,0.0,0.0,0.0,0.0,1,1,0.0,1,1.0,0,1.0,0,1.0,0,1.0
36,483,'1',0.0001,0.01,0.0,643.975,743.0,743.0,0.0,0.0,0.0,0.0,1,1,0.0,1,1.0,0,1.0,0,1.0,0,1.0
37,55,'1',0.00249,0.02091,0.043,1275.0,1275.0,1275.0,0.0,0.0,0.0,0.0,1,1,0.0,1,1.0,0,1.0,0,1.0,0,1.0
37,79,'1',0.00037,0.00306,0.00647,1275.0,1275.0,1275.0,0.0,0.0,0.0,0.0,1,1,0.0,1,1.0,0,1.0,0,1.0,0,1.0
40,47,'1',0.00855,0.03356,0.00426,400.0,400.0,400.0,0.0,0.0,0.0,0.0,1,1,0.0,1,1.0,0,1.0,0,1.0,0,1.0
40,93,'1',0.01448,0.0565,0.00724,400.0,400.0,400.0,0.0,0.0,0.0,0.0,1,1,0.0,1,1.0,0,1.0,0,1.0,0,1.0
41,46,'1',0.00572,0.03592,0.12701,1542.5,1542.5,1542.5,0.0,0.0,0.0,0.0,1,1,0.0,1,1.0,0,1.0,0,1.0,0,1.0
41,87,'1',0.0001,0.001,0.0,650.0,780.0,780.0,0.0,0.0,0.0,0.0,1,1,0.0,1,1.0,0,1.0,0,1.0,0,1.0
44,67,'1',0.01683,0.06688,0.0094,662.25,794.75,794.75,0.0,0.0,0.0,0.0,1,1,0.0,1,1.0,0,1.0,0,1.0,0,1.0
46,90,'1',0.00242,0.01482,0.05476,1645.0,1645.0,1645.0,0.0,0.0,0.0,0.0,1,1,0.0,1,1.0,0,1.0,0,1.0,0,1.0
50,74,'1',0.00113,0.00465,0.00061,185.0,185.0,185.0,0.0,0.0,0.0,0.0,1,1,0.0,1,1.0,0,1.0,0,1.0,0,1.0
52,87,'1',0.0001,0.001,0.0,650.0,780.0,780.0,0.0,0.0,0.0,0.0,1,1,0.0,1,1.0,0,1.0,0,1.0,0,1.0
53,62,'1',0.00689,0.01291,0.00144,185.0,185.0,185.0,0.0,0.0,0.0,0.0,1,1,0.0,1,1.0,0,1.0,0,1.0,0,1.0
53,82,'1',0.00037,0.001,0.0,185.0,185.0,185.0,0.0,0.0,0.0,0.0,1,1,0.0,1,1.0,0,1.0,0,1.0,0,1.0
57,85,'1',0.0002,0.001,0.0,215.0,215.0,215.0,0.0,0.0,0.0,0.0,1,1,0.0,1,1.0,0,1.0,0,1.0,0,1.0
58,76,'1',0.02397,0.04498,0.00499,185.0,185.0,185.0,0.0,0.0,0.0,0.0,1,1,0.0,1,1.0,0,1.0,0,1.0,0,1.0
58,91,'1',0.0293,0.08307,0.00997,320.0,320.0,320.0,0.0,0.0,0.0,0.0,1,1,0.0,1,1.0,0,1.0,0,1.0,0,1.0
58,92,'1',0.03256,0.0924,0.01108,147.5,147.5,147.5,0.0,0.0,0.0,0.0,1,1,0.0,1,1.0,0,1.0,0,1.0,0,1.0
58,499,'1',0.0001,0.01,0.0,347.95,417.5,417.5,0.0,0.0,0.0,0.0,1,1,0.0,1,1.0,0,1.0,0,1.0,0,1.0
62,76,'1',0.00523,0.00981,0.00108,185.0,185.0,185.0,0.0,0.0,0.0,0.0,1,1,0.0,1,1.0,0,1.0,0,1.0,0,1.0
63,90,'1',0.00075,0.00528,0.02325,827.5,827.5,827.5,0.0,0.0,0.0,0.0,1,1,0.0,1,1.0,0,1.0,0,1.0,0,1.0
68,83,'1',0.01058,0.02193,0.00216,215.0,215.0,215.0,0.0,0.0,0.0,0.0,1,1,0.0,1,1.0,0,1.0,0,1.0,0,1.0
68,84,'1',0.0059,0.01222,0.00121,215.0,215.0,215.0,0.0,0.0,0.0,0.0,1,1,0.0,1,1.0,0,1.0,0,1.0,0,1.0
69,86,'1',0.00519,0.04108,0.09283,1275.0,1275.0,1275.0,0.0,0.0,0.0,0.0,1,1,0.0,1,1.0,0,1.0,0,1.0,0,1.0
71,93,'1',0.03778,0.11512,0.0141,320.0,320.0,320.0,0.0,0.0,0.0,0.0,1,1,0.0,1,1.0,0,1.0,0,1.0,0,1.0
79,87,'1',0.00493,0.0412,0.0844,1275.0,1275.0,1275.0,0.0,0.0,0.0,0.0,1,1,0.0,1,1.0,0,1.0,0,1.0,0,1.0
81,494,'1',0.0001,0.01,0.0,589.625,680.25,680.25,0.0,0.0,0.0,0.0,1,1,0.0,1,1.0,0,1.0,0,1.0,0,1.0
83,91,'1',0.0039,0.01106,0.00133,215.0,215.0,215.0,0.0,0.0,0.0,0.0,1,1,0.0,1,1.0,0,1.0,0,1.0,0,1.0
95,96,'1',2e-05,0.00021,0.0,2190.0,2190.0,2190.0,0.0,0.0,0.0,0.0,1,1,0.0,1,1.0,0,1.0,0,1.0,0,1.0
95,99,'1',0.00171,0.00961,0.01424,625.0,625.0,625.0,0.0,0.0,0.0,0.0,1,1,0.0,1,1.0,0,1.0,0,1.0,0,1.0
96,748,'1',0.0001,0.01,0.0,304.525,365.5,365.5,0.0,0.0,0.0,0.0,1,1,0.0,1,1.0,0,1.0,0,1.0,0,1.0
97,98,'1',2e-05,0.00021,0.0,2190.0,2190.0,2190.0,0.0,0.0,0.0,0.0,1,1,0.0,1,1.0,0,1.0,0,1.0,0,1.0
97,100,'1',0.00194,0.01415,0.0223,852.5,852.5,852.5,0.0,0.0,0.0,0.0,1,1,0.0,1,1.0,0,1.0,0,1.0,0,1.0
97,697,'1',0.0001,0.01,0.0,209.25,246.5,246.5,0.0,0.0,0.0,0.0,1,1,0.0,1,1.0,0,1.0,0,1.0,0,1.0
98,749,'1',0.0001,0.01,0.0,306.375,353.5,353.5,0.0,0.0,0.0,0.0,1,1,0.0,1,1.0,0,1.0,0,1.0,0,1.0
99,100,'1',2e-05,0.00021,0.0,2190.0,2190.0,2190.0,0.0,0.0,0.0,0.0,1,1,0.0,1,1.0,0,1.0,0,1.0,0,1.0
99,102,'1',0.00537,0.04039,0.06005,797.5,797.5,797.5,0.0,0.0,0.0,0.0,1,1,0.0,1,1.0,0,1.0,0,1.0,0,1.0
100,698,'1',0.0001,0.01,0.0,469.7,542.0,542.0,0.0,0.0,0.0,0.0,1,1,0.0,1,1.0,0,1.0,0,1.0,0,1.0
101,102,'1',0.00066,0.00496,0.00758,797.5,797.5,797.5,0.0,0.0,0.0,0.0,1,1,0.0,1,1.0,0,1.0,0,1.0,0,1.0
101,696,'1',0.0001,0.01,0.0,314.5,377.5,377.5,0.0,0.0,0.0,0.0,1,1,0.0,1,1.0,0,1.0,0,1.0,0,1.0
102,747,'1',0.0001,0.01,0.0,646.825,746.25,746.25,0.0,0.0,0.0,0.0,1,1,0.0,1,1.0,0,1.0,0,1.0,0,1.0
103,152,'1',0.01248,0.04595,0.00524,187.5,187.5,187.5,0.0,0.0,0.0,0.0,1,1,0.0,1,1.0,0,1.0,0,1.0,0,1.0
104,105,'1',8e-05,0.00083,0.0,1585.275,1829.25,1829.25,0.0,0.0,0.0,0.0,1,1,0.0,1,1.0,0,1.0,0,1.0,0,1.0
104,170,'1',0.00364,0.01149,0.00123,1611.725,1859.75,1859.75,0.0,0.0,0.0,0.0,1,1,0.0,1,1.0,0,1.0,0,1.0,0,1.0
105,180,'1',0.00653,0.02058,0.00222,1570.575,1812.25,1812.25,0.0,0.0,0.0,0.0,1,1,0.0,1,1.0,0,1.0,0,1.0,0,1.0
...